@<TRIPOS>MOLECULE
HX
  151   151     1     0     0
SMALL
bcc


@<TRIPOS>ATOM
      1 C          -2.7490    8.5080    2.5290 c         0 HX       0.636100
      2 C1          0.1980    1.1020   -1.2040 ca        0 HX       0.061100
      3 C2          1.3760    1.7690   -0.8770 ca        0 HX       0.137100
      4 C3          1.3230    2.9960   -0.2420 ca        0 HX      -0.196000
      5 C4          0.0870    3.5670    0.0710 ca        0 HX      -0.081600
      6 C5         -1.0930    2.8950   -0.2580 ca        0 HX      -0.196000
      7 C6         -1.0350    1.6690   -0.8930 ca        0 HX       0.137100
      8 O          -2.1840    1.0150   -1.2140 os        0 HX      -0.313900
      9 C7          0.0280    4.8760    0.7500 c         0 HX       0.670700
     10 O1          1.0560    5.4590    1.0360 o         0 HX      -0.599100
     11 N          -1.1650    5.4260    1.0510 n         0 HX      -0.569900
     12 H          -1.9850    4.9610    0.8230 hn        0 HX       0.313500
     13 C8         -1.2240    6.7260    1.7250 c3        0 HX       0.094000
     14 C9         -3.2650    1.8390   -0.7730 c3        0 HX       0.126400
     15 C10        -4.5940    1.1570   -1.1060 c3        0 HX      -0.085900
     16 C11        -5.7520    2.0390   -0.6340 c3        0 HX      -0.078400
     17 C12        -7.0800    1.3580   -0.9670 c3        0 HX      -0.078400
     18 C13        -8.2380    2.2400   -0.4940 c3        0 HX      -0.079400
     19 C14        -9.5670    1.5580   -0.8280 c3        0 HX      -0.079400
     20 C15       -10.7250    2.4400   -0.3550 c3        0 HX      -0.079400
     21 C16       -12.0530    1.7590   -0.6880 c3        0 HX      -0.079400
     22 C17       -13.2110    2.6400   -0.2160 c3        0 HX      -0.078400
     23 C18       -14.5400    1.9590   -0.5490 c3        0 HX      -0.079400
     24 C19       -15.6980    2.8410   -0.0770 c3        0 HX      -0.127400
     25 C20       -17.0070    2.1700   -0.4050 c         0 HX       0.640100
     26 O2        -17.0130    1.0960   -0.9590 o         0 HX      -0.529500
     27 O3        -18.1660    2.7650   -0.0800 os        0 HX      -0.377200
     28 C21       -19.3440    2.1600   -0.3760 c2        0 HX       0.012100
     29 C22       -20.4810    2.7440   -0.0580 c2        0 HX      -0.258000
     30 O4          0.2520   -0.1010   -1.8330 os        0 HX      -0.314900
     31 C23         0.2900   -1.1000   -0.8120 c3        0 HX       0.129400
     32 C24         0.3520   -2.4860   -1.4560 c3        0 HX      -0.084400
     33 C25         0.3930   -3.5550   -0.3630 c3        0 HX      -0.077400
     34 C26         0.4550   -4.9420   -1.0070 c3        0 HX      -0.078400
     35 C27         0.4960   -6.0110    0.0870 c3        0 HX      -0.079400
     36 C28         0.5580   -7.3970   -0.5580 c3        0 HX      -0.079400
     37 C29         0.5980   -8.4670    0.5360 c3        0 HX      -0.079400
     38 C30         0.6610   -9.8530   -0.1080 c3        0 HX      -0.079400
     39 C31         0.7010  -10.9220    0.9850 c3        0 HX      -0.078400
     40 C32         0.7630  -12.3080    0.3410 c3        0 HX      -0.079400
     41 C33         0.8040  -13.3780    1.4340 c3        0 HX      -0.127400
     42 C34         0.8650  -14.7430    0.8000 c         0 HX       0.640100
     43 O5          0.8750  -14.8500   -0.4040 o         0 HX      -0.529000
     44 O6          0.9080  -15.8410    1.5720 os        0 HX      -0.377200
     45 C35         0.9640  -17.0710    1.0000 c2        0 HX       0.012100
     46 C36         1.0060  -18.1470    1.7570 c2        0 HX      -0.258000
     47 O7          2.5790    1.2130   -1.1810 os        0 HX      -0.313900
     48 C37         3.5820    2.1230   -0.7260 c3        0 HX       0.126400
     49 C38         4.9670    1.5540   -1.0400 c3        0 HX      -0.085900
     50 C39         6.0410    2.5290   -0.5520 c3        0 HX      -0.078400
     51 C40         7.4260    1.9600   -0.8660 c3        0 HX      -0.078400
     52 C41         8.5000    2.9340   -0.3790 c3        0 HX      -0.079400
     53 C42         9.8850    2.3650   -0.6920 c3        0 HX      -0.079400
     54 C43        10.9590    3.3400   -0.2050 c3        0 HX      -0.079400
     55 C44        12.3450    2.7710   -0.5190 c3        0 HX      -0.079400
     56 C45        13.4190    3.7450   -0.0310 c3        0 HX      -0.078400
     57 C46        14.8040    3.1760   -0.3450 c3        0 HX      -0.079400
     58 C47        15.8780    4.1510    0.1430 c3        0 HX      -0.127400
     59 C48        17.2420    3.5900   -0.1670 c         0 HX       0.640100
     60 O8         17.3450    2.5210   -0.7200 o         0 HX      -0.529500
     61 O9         18.3440    4.2790    0.1730 os        0 HX      -0.377200
     62 C49        19.5720    3.7740   -0.1050 c2        0 HX       0.012100
     63 C50        20.6520    4.4500    0.2280 c2        0 HX      -0.258000
     64 C51        -2.6860    7.1180    1.9490 c3        0 HX      -0.132700
     65 C52        -3.3360    6.1300    2.9200 c3        0 HX      -0.094100
     66 O10        -1.7300    9.1210    2.7420 o         0 HX      -0.551000
     67 O11        -3.9380    9.0660    2.8050 oh        0 HX      -0.607100
     68 H1          2.2370    3.5130    0.0120 ha        0 HX       0.151000
     69 H2         -2.0500    3.3340   -0.0170 ha        0 HX       0.151000
     70 H3         -0.7140    6.6600    2.6860 h1        0 HX       0.079200
     71 H4         -0.7370    7.4780    1.1050 h1        0 HX       0.079200
     72 H5         -3.1930    1.9870    0.3040 h1        0 HX       0.041200
     73 H6         -3.2150    2.8040   -1.2770 h1        0 HX       0.041200
     74 H7         -4.6660    1.0090   -2.1840 hc        0 HX       0.059950
     75 H8         -4.6430    0.1920   -0.6030 hc        0 HX       0.059950
     76 H9         -5.6790    2.1870    0.4440 hc        0 HX       0.041450
     77 H10        -5.7020    3.0050   -1.1370 hc        0 HX       0.041450
     78 H11        -7.1530    1.2100   -2.0440 hc        0 HX       0.042950
     79 H12        -7.1300    0.3920   -0.4630 hc        0 HX       0.042950
     80 H13        -8.1660    2.3880    0.5830 hc        0 HX       0.040200
     81 H14        -8.1890    3.2050   -0.9980 hc        0 HX       0.040200
     82 H15        -9.6390    1.4100   -1.9050 hc        0 HX       0.041450
     83 H16        -9.6170    0.5930   -0.3240 hc        0 HX       0.041450
     84 H17       -10.6520    2.5880    0.7220 hc        0 HX       0.040200
     85 H18       -10.6750    3.4050   -0.8590 hc        0 HX       0.040200
     86 H19       -12.1260    1.6100   -1.7660 hc        0 HX       0.043450
     87 H20       -12.1030    0.7930   -0.1850 hc        0 HX       0.043450
     88 H21       -13.1390    2.7880    0.8620 hc        0 HX       0.041450
     89 H22       -13.1620    3.6060   -0.7190 hc        0 HX       0.041450
     90 H23       -14.6120    1.8110   -1.6260 hc        0 HX       0.058200
     91 H24       -14.5900    0.9940   -0.0450 hc        0 HX       0.058200
     92 H25       -15.6250    2.9890    1.0010 hc        0 HX       0.080700
     93 H26       -15.6480    3.8060   -0.5800 hc        0 HX       0.080700
     94 H27       -19.3500    1.2010   -0.8720 h4        0 HX       0.165000
     95 H28       -21.4190    2.2630   -0.2930 ha        0 HX       0.130500
     96 H29       -20.4760    3.7030    0.4380 ha        0 HX       0.130500
     97 H30         1.1720   -0.9490   -0.1890 h1        0 HX       0.042200
     98 H31        -0.6070   -1.0250   -0.1970 h1        0 HX       0.042200
     99 H32        -0.5290   -2.6370   -2.0790 hc        0 HX       0.056700
    100 H33         1.2490   -2.5610   -2.0710 hc        0 HX       0.056700
    101 H34         1.2740   -3.4040    0.2610 hc        0 HX       0.040200
    102 H35        -0.5040   -3.4800    0.2520 hc        0 HX       0.040200
    103 H36        -0.4260   -5.0930   -1.6300 hc        0 HX       0.041700
    104 H37         1.3520   -5.0170   -1.6220 hc        0 HX       0.041700
    105 H38         1.3770   -5.8600    0.7100 hc        0 HX       0.039700
    106 H39        -0.4010   -5.9360    0.7020 hc        0 HX       0.039700
    107 H40        -0.3240   -7.5480   -1.1810 hc        0 HX       0.041200
    108 H41         1.4550   -7.4720   -1.1730 hc        0 HX       0.041200
    109 H42         1.4800   -8.3160    1.1590 hc        0 HX       0.039700
    110 H43        -0.2980   -8.3920    1.1510 hc        0 HX       0.039700
    111 H44        -0.2210  -10.0040   -0.7320 hc        0 HX       0.043200
    112 H45         1.5570   -9.9280   -0.7230 hc        0 HX       0.043200
    113 H46         1.5830  -10.7710    1.6080 hc        0 HX       0.041200
    114 H47        -0.1960  -10.8470    1.6000 hc        0 HX       0.041200
    115 H48        -0.1180  -12.4590   -0.2820 hc        0 HX       0.058200
    116 H49         1.6600  -12.3830   -0.2740 hc        0 HX       0.058200
    117 H50         1.6850  -13.2270    2.0580 hc        0 HX       0.080700
    118 H51        -0.0930  -13.3030    2.0490 hc        0 HX       0.080700
    119 H52         0.9730  -17.1660   -0.0750 h4        0 HX       0.165000
    120 H53         1.0500  -19.1260    1.3030 ha        0 HX       0.129500
    121 H54         0.9970  -18.0520    2.8330 ha        0 HX       0.129500
    122 H55         3.4590    3.0810   -1.2310 h1        0 HX       0.041200
    123 H56         3.4820    2.2640    0.3500 h1        0 HX       0.041200
    124 H57         5.0890    0.5960   -0.5350 hc        0 HX       0.059950
    125 H58         5.0660    1.4130   -2.1160 hc        0 HX       0.059950
    126 H59         5.9190    3.4870   -1.0570 hc        0 HX       0.041450
    127 H60         5.9420    2.6700    0.5240 hc        0 HX       0.041450
    128 H61         7.5480    1.0020   -0.3610 hc        0 HX       0.042950
    129 H62         7.5250    1.8180   -1.9420 hc        0 HX       0.042950
    130 H63         8.3780    3.8920   -0.8840 hc        0 HX       0.040200
    131 H64         8.4010    3.0750    0.6980 hc        0 HX       0.040200
    132 H65        10.0080    1.4070   -0.1870 hc        0 HX       0.041450
    133 H66         9.9850    2.2240   -1.7690 hc        0 HX       0.041450
    134 H67        10.8370    4.2980   -0.7100 hc        0 HX       0.040200
    135 H68        10.8600    3.4810    0.8710 hc        0 HX       0.040200
    136 H69        12.4670    1.8130   -0.0140 hc        0 HX       0.043450
    137 H70        12.4440    2.6290   -1.5950 hc        0 HX       0.043450
    138 H71        13.2960    4.7030   -0.5360 hc        0 HX       0.041450
    139 H72        13.3190    3.8860    1.0450 hc        0 HX       0.041450
    140 H73        14.9260    2.2180    0.1600 hc        0 HX       0.058200
    141 H74        14.9030    3.0350   -1.4210 hc        0 HX       0.058200
    142 H75        15.7560    5.1090   -0.3620 hc        0 HX       0.080700
    143 H76        15.7780    4.2920    1.2190 hc        0 HX       0.080700
    144 H77        19.6640    2.8190   -0.6000 h4        0 HX       0.165000
    145 H78        21.6300    4.0480    0.0060 ha        0 HX       0.130500
    146 H79        20.5610    5.4060    0.7230 ha        0 HX       0.130500
    147 H80        -3.2180    7.0970    0.9980 hc        0 HX       0.079700
    148 H81        -2.8040    6.1510    3.8710 hc        0 HX       0.055700
    149 H82        -4.3770    6.4100    3.0790 hc        0 HX       0.055700
    150 H83        -3.2900    5.1250    2.5000 hc        0 HX       0.055700
    151 H84        -3.9790    9.9580    3.1780 ho        0 HX       0.445000
@<TRIPOS>BOND
     1    1   64 1   
     2    1   66 2   
     3    1   67 1   
     4    2    3 ar  
     5    2    7 ar  
     6    2   30 1   
     7    3    4 ar  
     8    3   47 1   
     9    4    5 ar  
    10    4   68 1   
    11    5    6 ar  
    12    5    9 1   
    13    6    7 ar  
    14    6   69 1   
    15    7    8 1   
    16    8   14 1   
    17    9   10 2   
    18    9   11 1   
    19   11   12 1   
    20   11   13 1   
    21   13   64 1   
    22   13   70 1   
    23   13   71 1   
    24   14   15 1   
    25   14   72 1   
    26   14   73 1   
    27   15   16 1   
    28   15   74 1   
    29   15   75 1   
    30   16   17 1   
    31   16   76 1   
    32   16   77 1   
    33   17   18 1   
    34   17   78 1   
    35   17   79 1   
    36   18   19 1   
    37   18   80 1   
    38   18   81 1   
    39   19   20 1   
    40   19   82 1   
    41   19   83 1   
    42   20   21 1   
    43   20   84 1   
    44   20   85 1   
    45   21   22 1   
    46   21   86 1   
    47   21   87 1   
    48   22   23 1   
    49   22   88 1   
    50   22   89 1   
    51   23   24 1   
    52   23   90 1   
    53   23   91 1   
    54   24   25 1   
    55   24   92 1   
    56   24   93 1   
    57   25   26 2   
    58   25   27 1   
    59   27   28 1   
    60   28   29 2   
    61   28   94 1   
    62   29   95 1   
    63   29   96 1   
    64   30   31 1   
    65   31   32 1   
    66   31   97 1   
    67   31   98 1   
    68   32   33 1   
    69   32   99 1   
    70   32  100 1   
    71   33   34 1   
    72   33  101 1   
    73   33  102 1   
    74   34   35 1   
    75   34  103 1   
    76   34  104 1   
    77   35   36 1   
    78   35  105 1   
    79   35  106 1   
    80   36   37 1   
    81   36  107 1   
    82   36  108 1   
    83   37   38 1   
    84   37  109 1   
    85   37  110 1   
    86   38   39 1   
    87   38  111 1   
    88   38  112 1   
    89   39   40 1   
    90   39  113 1   
    91   39  114 1   
    92   40   41 1   
    93   40  115 1   
    94   40  116 1   
    95   41   42 1   
    96   41  117 1   
    97   41  118 1   
    98   42   43 2   
    99   42   44 1   
   100   44   45 1   
   101   45   46 2   
   102   45  119 1   
   103   46  120 1   
   104   46  121 1   
   105   47   48 1   
   106   48   49 1   
   107   48  122 1   
   108   48  123 1   
   109   49   50 1   
   110   49  124 1   
   111   49  125 1   
   112   50   51 1   
   113   50  126 1   
   114   50  127 1   
   115   51   52 1   
   116   51  128 1   
   117   51  129 1   
   118   52   53 1   
   119   52  130 1   
   120   52  131 1   
   121   53   54 1   
   122   53  132 1   
   123   53  133 1   
   124   54   55 1   
   125   54  134 1   
   126   54  135 1   
   127   55   56 1   
   128   55  136 1   
   129   55  137 1   
   130   56   57 1   
   131   56  138 1   
   132   56  139 1   
   133   57   58 1   
   134   57  140 1   
   135   57  141 1   
   136   58   59 1   
   137   58  142 1   
   138   58  143 1   
   139   59   60 2   
   140   59   61 1   
   141   61   62 1   
   142   62   63 2   
   143   62  144 1   
   144   63  145 1   
   145   63  146 1   
   146   64   65 1   
   147   64  147 1   
   148   65  148 1   
   149   65  149 1   
   150   65  150 1   
   151   67  151 1   
@<TRIPOS>SUBSTRUCTURE
     1 HX          1 TEMP              0 ****  ****    0 ROOT
