@<TRIPOS>MOLECULE
MOL
  110   110     1     0     0
SMALL
bcc


@<TRIPOS>ATOM
      1 O           -1.0590    -5.6000    -1.6410 o          0 MOL      -0.825800
      2 C            0.0000    -5.0700    -1.3340 c          0 MOL       0.909200
      3 C1           0.0000    -3.7960    -0.5970 ca         0 MOL      -0.071600
      4 C2           1.2110    -3.1890    -0.2450 ca         0 MOL      -0.194000
      5 C3           1.2070    -1.9940     0.4470 ca         0 MOL       0.104100
      6 O1           2.3840    -1.4030     0.7880 os         0 MOL      -0.336900
      7 C4           3.4270    -2.2480     0.2990 c3         0 MOL       0.128900
      8 C5           4.7850    -1.6380     0.6520 c3         0 MOL      -0.085400
      9 C6           5.9030    -2.5420     0.1280 c3         0 MOL      -0.079400
     10 C7           7.2610    -1.9320     0.4810 c3         0 MOL      -0.077400
     11 C8           8.3780    -2.8360    -0.0430 c3         0 MOL      -0.079400
     12 C9           9.7360    -2.2260     0.3090 c3         0 MOL      -0.078400
     13 C10         10.8530    -3.1300    -0.2150 c3         0 MOL      -0.086400
     14 C11         12.2110    -2.5200     0.1380 c3         0 MOL       0.140400
     15 O2          13.2710    -3.3780    -0.3590 os         0 MOL      -0.436900
     16 C12         14.5610    -3.0390    -0.1630 c          0 MOL       0.627300
     17 C13         15.6340    -3.9080    -0.6660 ce         0 MOL      -0.206200
     18 C14         16.9070    -3.5730    -0.4730 c2         0 MOL      -0.139000
     19 O3          14.8360    -2.0150     0.4300 o          0 MOL      -0.549000
     20 C15          0.0000    -1.3920     0.7950 ca         0 MOL       0.012100
     21 O4           0.0000    -0.2170     1.4750 os         0 MOL      -0.321900
     22 C16         -0.0000     0.8260     0.4980 c3         0 MOL       0.129400
     23 C17         -0.0000     2.1850     1.2020 c3         0 MOL      -0.083400
     24 C18         -0.0000     3.3010     0.1560 c3         0 MOL      -0.077400
     25 C19         -0.0000     4.6600     0.8590 c3         0 MOL      -0.078400
     26 C20         -0.0000     5.7760    -0.1870 c3         0 MOL      -0.078400
     27 C21         -0.0010     7.1340     0.5170 c3         0 MOL      -0.078400
     28 C22         -0.0010     8.2510    -0.5300 c3         0 MOL      -0.086400
     29 C23         -0.0010     9.6090     0.1740 c3         0 MOL       0.140400
     30 O5          -0.0010    10.6690    -0.8190 os         0 MOL      -0.437900
     31 C24         -0.0010    11.9590    -0.4280 c          0 MOL       0.627300
     32 C25         -0.0010    13.0310    -1.4330 ce         0 MOL      -0.206200
     33 C26         -0.0010    14.3050    -1.0470 c2         0 MOL      -0.138000
     34 O6          -0.0010    12.2350     0.7550 o          0 MOL      -0.549000
     35 C27         -1.2070    -1.9940     0.4470 ca         0 MOL       0.104100
     36 O7          -2.3840    -1.4030     0.7880 os         0 MOL      -0.336900
     37 C28         -3.4270    -2.2480     0.2990 c3         0 MOL       0.128900
     38 C29         -4.7850    -1.6380     0.6520 c3         0 MOL      -0.085400
     39 C30         -5.9020    -2.5430     0.1280 c3         0 MOL      -0.079400
     40 C31         -7.2600    -1.9320     0.4800 c3         0 MOL      -0.077400
     41 C32         -8.3770    -2.8370    -0.0430 c3         0 MOL      -0.079400
     42 C33         -9.7350    -2.2270     0.3090 c3         0 MOL      -0.078400
     43 C34        -10.8520    -3.1310    -0.2140 c3         0 MOL      -0.086400
     44 C35        -12.2100    -2.5210     0.1380 c3         0 MOL       0.140400
     45 O8         -13.2710    -3.3800    -0.3590 os         0 MOL      -0.436900
     46 C36        -14.5600    -3.0400    -0.1630 c          0 MOL       0.627300
     47 C37        -15.6330    -3.9090    -0.6660 ce         0 MOL      -0.206200
     48 C38        -16.9070    -3.5740    -0.4720 c2         0 MOL      -0.139000
     49 O9         -14.8360    -2.0150     0.4300 o          0 MOL      -0.549000
     50 C39         -1.2100    -3.1860    -0.2510 ca         0 MOL      -0.194000
     51 O10          1.0600    -5.6020    -1.6360 o          0 MOL      -0.825800
     52 H            2.1470    -3.6550    -0.5150 ha         0 MOL       0.163000
     53 H1           3.3420    -3.2330     0.7570 h1         0 MOL       0.044200
     54 H2           3.3410    -2.3420    -0.7840 h1         0 MOL       0.044200
     55 H3           4.8710    -0.6520     0.1940 hc         0 MOL       0.050200
     56 H4           4.8710    -1.5440     1.7340 hc         0 MOL       0.050200
     57 H5           5.8170    -3.5280     0.5860 hc         0 MOL       0.043200
     58 H6           5.8170    -2.6360    -0.9550 hc         0 MOL       0.043200
     59 H7           7.3460    -0.9460     0.0230 hc         0 MOL       0.039200
     60 H8           7.3470    -1.8380     1.5630 hc         0 MOL       0.039200
     61 H9           8.2920    -3.8220     0.4140 hc         0 MOL       0.042200
     62 H10          8.2920    -2.9300    -1.1260 hc         0 MOL       0.042200
     63 H11          9.8210    -1.2410    -0.1480 hc         0 MOL       0.041700
     64 H12          9.8220    -2.1320     1.3920 hc         0 MOL       0.041700
     65 H13         10.7680    -4.1160     0.2430 hc         0 MOL       0.054700
     66 H14         10.7670    -3.2240    -1.2970 hc         0 MOL       0.054700
     67 H15         12.2960    -1.5350    -0.3200 h1         0 MOL       0.051700
     68 H16         12.2970    -2.4270     1.2210 h1         0 MOL       0.051700
     69 H17         15.3890    -4.8180    -1.1930 ha         0 MOL       0.154000
     70 H18         17.6960    -4.2110    -0.8430 ha         0 MOL       0.128500
     71 H19         17.1520    -2.6620     0.0540 ha         0 MOL       0.128500
     72 H20          0.8900     0.7400    -0.1250 h1         0 MOL       0.036200
     73 H21         -0.8900     0.7400    -0.1250 h1         0 MOL       0.036200
     74 H22         -0.8900     2.2710     1.8250 hc         0 MOL       0.049700
     75 H23          0.8900     2.2710     1.8250 hc         0 MOL       0.049700
     76 H24          0.8900     3.2150    -0.4680 hc         0 MOL       0.038700
     77 H25         -0.8900     3.2150    -0.4680 hc         0 MOL       0.038700
     78 H26         -0.8900     4.7460     1.4830 hc         0 MOL       0.039700
     79 H27          0.8900     4.7460     1.4820 hc         0 MOL       0.039700
     80 H28          0.8890     5.6900    -0.8110 hc         0 MOL       0.040700
     81 H29         -0.8910     5.6890    -0.8100 hc         0 MOL       0.040700
     82 H30         -0.8900     7.2210     1.1400 hc         0 MOL       0.041700
     83 H31          0.8890     7.2210     1.1400 hc         0 MOL       0.041700
     84 H32          0.8890     8.1640    -1.1530 hc         0 MOL       0.053700
     85 H33         -0.8910     8.1640    -1.1530 hc         0 MOL       0.053700
     86 H34         -0.8910     9.6950     0.7970 h1         0 MOL       0.051700
     87 H35          0.8890     9.6960     0.7970 h1         0 MOL       0.051700
     88 H36         -0.0010    12.7850    -2.4850 ha         0 MOL       0.154000
     89 H37         -0.0010    15.0930    -1.7860 ha         0 MOL       0.128500
     90 H38         -0.0010    14.5500     0.0040 ha         0 MOL       0.128500
     91 H39         -3.3410    -2.3420    -0.7840 h1         0 MOL       0.044200
     92 H40         -3.3410    -3.2330     0.7570 h1         0 MOL       0.044200
     93 H41         -4.8710    -1.5440     1.7340 hc         0 MOL       0.050200
     94 H42         -4.8700    -0.6530     0.1930 hc         0 MOL       0.050200
     95 H43         -5.8160    -2.6360    -0.9550 hc         0 MOL       0.043200
     96 H44         -5.8170    -3.5280     0.5860 hc         0 MOL       0.043200
     97 H45         -7.3460    -1.8380     1.5630 hc         0 MOL       0.039200
     98 H46         -7.3460    -0.9470     0.0220 hc         0 MOL       0.039200
     99 H47         -8.2910    -2.9310    -1.1260 hc         0 MOL       0.042200
    100 H48         -8.2920    -3.8220     0.4150 hc         0 MOL       0.042200
    101 H49         -9.8210    -2.1330     1.3920 hc         0 MOL       0.041700
    102 H50         -9.8210    -1.2410    -0.1490 hc         0 MOL       0.041700
    103 H51        -10.7660    -3.2250    -1.2970 hc         0 MOL       0.054700
    104 H52        -10.7670    -4.1170     0.2440 hc         0 MOL       0.054700
    105 H53        -12.2960    -2.4270     1.2210 h1         0 MOL       0.051700
    106 H54        -12.2960    -1.5360    -0.3200 h1         0 MOL       0.051700
    107 H55        -15.3890    -4.8200    -1.1930 ha         0 MOL       0.154000
    108 H56        -17.6950    -4.2130    -0.8420 ha         0 MOL       0.128500
    109 H57        -17.1520    -2.6630     0.0540 ha         0 MOL       0.128500
    110 H58         -2.1470    -3.6520    -0.5200 ha         0 MOL       0.163000
@<TRIPOS>BOND
     1     1     2 1   
     2     2     3 1   
     3     2    51 1   
     4     3     4 ar  
     5     3    50 ar  
     6     4     5 ar  
     7     4    52 1   
     8     5     6 1   
     9     5    20 ar  
    10     6     7 1   
    11     7     8 1   
    12     7    53 1   
    13     7    54 1   
    14     8     9 1   
    15     8    55 1   
    16     8    56 1   
    17     9    10 1   
    18     9    57 1   
    19     9    58 1   
    20    10    11 1   
    21    10    59 1   
    22    10    60 1   
    23    11    12 1   
    24    11    61 1   
    25    11    62 1   
    26    12    13 1   
    27    12    63 1   
    28    12    64 1   
    29    13    14 1   
    30    13    65 1   
    31    13    66 1   
    32    14    15 1   
    33    14    67 1   
    34    14    68 1   
    35    15    16 1   
    36    16    17 1   
    37    16    19 2   
    38    17    18 2   
    39    17    69 1   
    40    18    70 1   
    41    18    71 1   
    42    20    21 1   
    43    20    35 ar  
    44    21    22 1   
    45    22    23 1   
    46    22    72 1   
    47    22    73 1   
    48    23    24 1   
    49    23    74 1   
    50    23    75 1   
    51    24    25 1   
    52    24    76 1   
    53    24    77 1   
    54    25    26 1   
    55    25    78 1   
    56    25    79 1   
    57    26    27 1   
    58    26    80 1   
    59    26    81 1   
    60    27    28 1   
    61    27    82 1   
    62    27    83 1   
    63    28    29 1   
    64    28    84 1   
    65    28    85 1   
    66    29    30 1   
    67    29    86 1   
    68    29    87 1   
    69    30    31 1   
    70    31    32 1   
    71    31    34 2   
    72    32    33 2   
    73    32    88 1   
    74    33    89 1   
    75    33    90 1   
    76    35    36 1   
    77    35    50 ar  
    78    36    37 1   
    79    37    38 1   
    80    37    91 1   
    81    37    92 1   
    82    38    39 1   
    83    38    93 1   
    84    38    94 1   
    85    39    40 1   
    86    39    95 1   
    87    39    96 1   
    88    40    41 1   
    89    40    97 1   
    90    40    98 1   
    91    41    42 1   
    92    41    99 1   
    93    41   100 1   
    94    42    43 1   
    95    42   101 1   
    96    42   102 1   
    97    43    44 1   
    98    43   103 1   
    99    43   104 1   
   100    44    45 1   
   101    44   105 1   
   102    44   106 1   
   103    45    46 1   
   104    46    47 1   
   105    46    49 2   
   106    47    48 2   
   107    47   107 1   
   108    48   108 1   
   109    48   109 1   
   110    50   110 1   
@<TRIPOS>SUBSTRUCTURE
     1 MOL         1 TEMP              0 ****  ****    0 ROOT
