@<TRIPOS>MOLECULE
MOL
  128   128     1     0     0
SMALL
bcc


@<TRIPOS>ATOM
      1 O           -1.0590    -5.9220    -1.6430 o          0 MOL      -0.825800
      2 C            0.0000    -5.3980    -1.3280 c          0 MOL       0.908200
      3 C1           0.0000    -4.1360    -0.5700 ca         0 MOL      -0.071600
      4 C2           1.2110    -3.5350    -0.2090 ca         0 MOL      -0.194000
      5 C3           1.2070    -2.3510     0.5030 ca         0 MOL       0.104100
      6 O1           2.3840    -1.7660     0.8540 os         0 MOL      -0.336900
      7 C4           3.4270    -2.6030     0.3510 c3         0 MOL       0.128900
      8 C5           4.7850    -1.9980     0.7140 c3         0 MOL      -0.085400
      9 C6           5.9030    -2.8940     0.1750 c3         0 MOL      -0.079400
     10 C7           7.2610    -2.2890     0.5380 c3         0 MOL      -0.077400
     11 C8           8.3780    -3.1850    -0.0010 c3         0 MOL      -0.079400
     12 C9           9.7360    -2.5810     0.3620 c3         0 MOL      -0.078400
     13 C10         10.8530    -3.4770    -0.1770 c3         0 MOL      -0.078400
     14 C11         12.2110    -2.8720     0.1860 c3         0 MOL      -0.078400
     15 C12         13.3280    -3.7680    -0.3530 c3         0 MOL      -0.086400
     16 C13         14.6860    -3.1640     0.0100 c3         0 MOL       0.140400
     17 O2          15.7460    -4.0140    -0.5010 os         0 MOL      -0.437900
     18 C14         17.0360    -3.6780    -0.3000 c          0 MOL       0.628300
     19 C15         18.1090    -4.5380    -0.8170 ce         0 MOL      -0.207200
     20 C16         19.3830    -4.2060    -0.6180 c2         0 MOL      -0.137000
     21 O3          17.3110    -2.6630     0.3100 o          0 MOL      -0.548000
     22 C17          0.0000    -1.7550     0.8610 ca         0 MOL       0.012100
     23 O4           0.0000    -0.5900     1.5600 os         0 MOL      -0.321900
     24 C18          0.0000     0.4680     0.6000 c3         0 MOL       0.129400
     25 C19         -0.0000     1.8150     1.3250 c3         0 MOL      -0.083400
     26 C20         -0.0000     2.9480     0.2970 c3         0 MOL      -0.077400
     27 C21         -0.0000     4.2950     1.0220 c3         0 MOL      -0.078400
     28 C22         -0.0000     5.4280    -0.0060 c3         0 MOL      -0.079400
     29 C23         -0.0000     6.7750     0.7200 c3         0 MOL      -0.079400
     30 C24         -0.0010     7.9080    -0.3090 c3         0 MOL      -0.078400
     31 C25         -0.0010     9.2550     0.4170 c3         0 MOL      -0.078400
     32 C26         -0.0010    10.3880    -0.6110 c3         0 MOL      -0.086400
     33 C27         -0.0010    11.7350     0.1140 c3         0 MOL       0.140400
     34 O5          -0.0010    12.8100    -0.8620 os         0 MOL      -0.437900
     35 C28         -0.0010    14.0940    -0.4500 c          0 MOL       0.628300
     36 C29         -0.0010    15.1820    -1.4370 ce         0 MOL      -0.207200
     37 C30         -0.0010    16.4500    -1.0310 c2         0 MOL      -0.137000
     38 O6          -0.0010    14.3510     0.7380 o          0 MOL      -0.548000
     39 C31         -1.2070    -2.3510     0.5030 ca         0 MOL       0.104100
     40 O7          -2.3830    -1.7660     0.8530 os         0 MOL      -0.336900
     41 C32         -3.4270    -2.6030     0.3510 c3         0 MOL       0.128900
     42 C33         -4.7850    -1.9980     0.7130 c3         0 MOL      -0.085400
     43 C34         -5.9020    -2.8940     0.1750 c3         0 MOL      -0.079400
     44 C35         -7.2600    -2.2900     0.5370 c3         0 MOL      -0.077400
     45 C36         -8.3770    -3.1860    -0.0010 c3         0 MOL      -0.079400
     46 C37         -9.7350    -2.5810     0.3620 c3         0 MOL      -0.078400
     47 C38        -10.8520    -3.4770    -0.1770 c3         0 MOL      -0.078400
     48 C39        -12.2100    -2.8730     0.1860 c3         0 MOL      -0.078400
     49 C40        -13.3280    -3.7690    -0.3530 c3         0 MOL      -0.086400
     50 C41        -14.6860    -3.1650     0.0100 c3         0 MOL       0.140400
     51 O8         -15.7460    -4.0150    -0.5010 os         0 MOL      -0.437900
     52 C42        -17.0360    -3.6790    -0.3000 c          0 MOL       0.628300
     53 C43        -18.1090    -4.5390    -0.8170 ce         0 MOL      -0.207200
     54 C44        -19.3820    -4.2070    -0.6180 c2         0 MOL      -0.137000
     55 O9         -17.3110    -2.6640     0.3100 o          0 MOL      -0.548000
     56 C45         -1.2100    -3.5320    -0.2140 ca         0 MOL      -0.194000
     57 O10          1.0600    -5.9250    -1.6380 o          0 MOL      -0.825800
     58 H            2.1470    -3.9970    -0.4850 ha         0 MOL       0.163000
     59 H1           3.3420    -3.5950     0.7930 h1         0 MOL       0.044200
     60 H2           3.3410    -2.6790    -0.7330 h1         0 MOL       0.044200
     61 H3           4.8710    -1.0050     0.2720 hc         0 MOL       0.049450
     62 H4           4.8710    -1.9220     1.7970 hc         0 MOL       0.049450
     63 H5           5.8170    -3.8870     0.6170 hc         0 MOL       0.042950
     64 H6           5.8170    -2.9700    -0.9090 hc         0 MOL       0.042950
     65 H7           7.3460    -1.2970     0.0960 hc         0 MOL       0.038200
     66 H8           7.3470    -2.2130     1.6220 hc         0 MOL       0.038200
     67 H9           8.2920    -4.1780     0.4410 hc         0 MOL       0.040700
     68 H10          8.2920    -3.2610    -1.0850 hc         0 MOL       0.040700
     69 H11          9.8210    -1.5880    -0.0800 hc         0 MOL       0.038700
     70 H12          9.8220    -2.5050     1.4460 hc         0 MOL       0.038700
     71 H13         10.7680    -4.4690     0.2650 hc         0 MOL       0.041700
     72 H14         10.7670    -3.5530    -1.2610 hc         0 MOL       0.041700
     73 H15         12.2960    -1.8790    -0.2560 hc         0 MOL       0.041700
     74 H16         12.2970    -2.7960     1.2700 hc         0 MOL       0.041700
     75 H17         13.2430    -4.7610     0.0890 hc         0 MOL       0.054700
     76 H18         13.2420    -3.8440    -1.4370 hc         0 MOL       0.054700
     77 H19         14.7720    -2.1710    -0.4320 h1         0 MOL       0.051700
     78 H20         14.7720    -3.0870     1.0940 h1         0 MOL       0.051700
     79 H21         17.8650    -5.4400    -1.3590 ha         0 MOL       0.154000
     80 H22         20.1710    -4.8380    -0.9980 ha         0 MOL       0.128500
     81 H23         19.6270    -3.3040    -0.0760 ha         0 MOL       0.128500
     82 H24          0.8900     0.3920    -0.0250 h1         0 MOL       0.036200
     83 H25         -0.8900     0.3910    -0.0250 h1         0 MOL       0.036200
     84 H26         -0.8900     1.8910     1.9500 hc         0 MOL       0.049700
     85 H27          0.8900     1.8910     1.9500 hc         0 MOL       0.049700
     86 H28          0.8900     2.8720    -0.3280 hc         0 MOL       0.038700
     87 H29         -0.8900     2.8720    -0.3280 hc         0 MOL       0.038700
     88 H30         -0.8900     4.3710     1.6470 hc         0 MOL       0.038700
     89 H31          0.8900     4.3710     1.6470 hc         0 MOL       0.038700
     90 H32          0.8890     5.3520    -0.6310 hc         0 MOL       0.038700
     91 H33         -0.8900     5.3520    -0.6300 hc         0 MOL       0.038700
     92 H34         -0.8900     6.8510     1.3440 hc         0 MOL       0.039700
     93 H35          0.8900     6.8510     1.3440 hc         0 MOL       0.039700
     94 H36          0.8890     7.8320    -0.9330 hc         0 MOL       0.040700
     95 H37         -0.8910     7.8320    -0.9330 hc         0 MOL       0.040700
     96 H38         -0.8910     9.3310     1.0420 hc         0 MOL       0.042700
     97 H39          0.8890     9.3310     1.0420 hc         0 MOL       0.042700
     98 H40          0.8890    10.3120    -1.2360 hc         0 MOL       0.054700
     99 H41         -0.8910    10.3120    -1.2360 hc         0 MOL       0.054700
    100 H42         -0.8910    11.8110     0.7390 h1         0 MOL       0.052700
    101 H43          0.8890    11.8110     0.7390 h1         0 MOL       0.052700
    102 H44         -0.0010    14.9540    -2.4930 ha         0 MOL       0.154000
    103 H45         -0.0020    17.2490    -1.7570 ha         0 MOL       0.129000
    104 H46         -0.0010    16.6780     0.0240 ha         0 MOL       0.129000
    105 H47         -3.3410    -2.6790    -0.7330 h1         0 MOL       0.044200
    106 H48         -3.3410    -3.5950     0.7930 h1         0 MOL       0.044200
    107 H49         -4.8710    -1.9220     1.7970 hc         0 MOL       0.049450
    108 H50         -4.8700    -1.0060     0.2710 hc         0 MOL       0.049450
    109 H51         -5.8160    -2.9710    -0.9090 hc         0 MOL       0.042950
    110 H52         -5.8170    -3.8870     0.6170 hc         0 MOL       0.042950
    111 H53         -7.3460    -2.2130     1.6210 hc         0 MOL       0.038200
    112 H54         -7.3460    -1.2970     0.0950 hc         0 MOL       0.038200
    113 H55         -8.2910    -3.2620    -1.0850 hc         0 MOL       0.040700
    114 H56         -8.2920    -4.1790     0.4410 hc         0 MOL       0.040700
    115 H57         -9.8210    -2.5050     1.4450 hc         0 MOL       0.038700
    116 H58         -9.8210    -1.5890    -0.0810 hc         0 MOL       0.038700
    117 H59        -10.7660    -3.5540    -1.2610 hc         0 MOL       0.041700
    118 H60        -10.7670    -4.4700     0.2650 hc         0 MOL       0.041700
    119 H61        -12.2960    -2.7970     1.2700 hc         0 MOL       0.041700
    120 H62        -12.2960    -1.8800    -0.2560 hc         0 MOL       0.041700
    121 H63        -13.2420    -3.8460    -1.4370 hc         0 MOL       0.054700
    122 H64        -13.2420    -4.7620     0.0900 hc         0 MOL       0.054700
    123 H65        -14.7720    -3.0880     1.0940 h1         0 MOL       0.051700
    124 H66        -14.7710    -2.1720    -0.4320 h1         0 MOL       0.051700
    125 H67        -17.8640    -5.4410    -1.3580 ha         0 MOL       0.154000
    126 H68        -20.1710    -4.8400    -0.9980 ha         0 MOL       0.128500
    127 H69        -19.6270    -3.3060    -0.0760 ha         0 MOL       0.128500
    128 H70         -2.1460    -3.9940    -0.4910 ha         0 MOL       0.163000
@<TRIPOS>BOND
     1     1     2 1   
     2     2     3 1   
     3     2    57 1   
     4     3     4 ar  
     5     3    56 ar  
     6     4     5 ar  
     7     4    58 1   
     8     5     6 1   
     9     5    22 ar  
    10     6     7 1   
    11     7     8 1   
    12     7    59 1   
    13     7    60 1   
    14     8     9 1   
    15     8    61 1   
    16     8    62 1   
    17     9    10 1   
    18     9    63 1   
    19     9    64 1   
    20    10    11 1   
    21    10    65 1   
    22    10    66 1   
    23    11    12 1   
    24    11    67 1   
    25    11    68 1   
    26    12    13 1   
    27    12    69 1   
    28    12    70 1   
    29    13    14 1   
    30    13    71 1   
    31    13    72 1   
    32    14    15 1   
    33    14    73 1   
    34    14    74 1   
    35    15    16 1   
    36    15    75 1   
    37    15    76 1   
    38    16    17 1   
    39    16    77 1   
    40    16    78 1   
    41    17    18 1   
    42    18    19 1   
    43    18    21 2   
    44    19    20 2   
    45    19    79 1   
    46    20    80 1   
    47    20    81 1   
    48    22    23 1   
    49    22    39 ar  
    50    23    24 1   
    51    24    25 1   
    52    24    82 1   
    53    24    83 1   
    54    25    26 1   
    55    25    84 1   
    56    25    85 1   
    57    26    27 1   
    58    26    86 1   
    59    26    87 1   
    60    27    28 1   
    61    27    88 1   
    62    27    89 1   
    63    28    29 1   
    64    28    90 1   
    65    28    91 1   
    66    29    30 1   
    67    29    92 1   
    68    29    93 1   
    69    30    31 1   
    70    30    94 1   
    71    30    95 1   
    72    31    32 1   
    73    31    96 1   
    74    31    97 1   
    75    32    33 1   
    76    32    98 1   
    77    32    99 1   
    78    33    34 1   
    79    33   100 1   
    80    33   101 1   
    81    34    35 1   
    82    35    36 1   
    83    35    38 2   
    84    36    37 2   
    85    36   102 1   
    86    37   103 1   
    87    37   104 1   
    88    39    40 1   
    89    39    56 ar  
    90    40    41 1   
    91    41    42 1   
    92    41   105 1   
    93    41   106 1   
    94    42    43 1   
    95    42   107 1   
    96    42   108 1   
    97    43    44 1   
    98    43   109 1   
    99    43   110 1   
   100    44    45 1   
   101    44   111 1   
   102    44   112 1   
   103    45    46 1   
   104    45   113 1   
   105    45   114 1   
   106    46    47 1   
   107    46   115 1   
   108    46   116 1   
   109    47    48 1   
   110    47   117 1   
   111    47   118 1   
   112    48    49 1   
   113    48   119 1   
   114    48   120 1   
   115    49    50 1   
   116    49   121 1   
   117    49   122 1   
   118    50    51 1   
   119    50   123 1   
   120    50   124 1   
   121    51    52 1   
   122    52    53 1   
   123    52    55 2   
   124    53    54 2   
   125    53   125 1   
   126    54   126 1   
   127    54   127 1   
   128    56   128 1   
@<TRIPOS>SUBSTRUCTURE
     1 MOL         1 TEMP              0 ****  ****    0 ROOT
