@<TRIPOS>MOLECULE
MOL
  119   119     1     0     0
SMALL
bcc


@<TRIPOS>ATOM
      1 O           -1.0590    -5.7000    -1.6310 o          0 MOL      -0.825300
      2 C            0.0000    -5.1760    -1.3160 c          0 MOL       0.909200
      3 C1           0.0000    -3.9130    -0.5580 ca         0 MOL      -0.071600
      4 C2           1.2110    -3.3120    -0.1980 ca         0 MOL      -0.193500
      5 C3           1.2070    -2.1280     0.5130 ca         0 MOL       0.103600
      6 O1           2.3840    -1.5420     0.8640 os         0 MOL      -0.337400
      7 C4           3.4270    -2.3790     0.3610 c3         0 MOL       0.128900
      8 C5           4.7850    -1.7750     0.7240 c3         0 MOL      -0.085400
      9 C6           5.9030    -2.6710     0.1860 c3         0 MOL      -0.079400
     10 C7           7.2610    -2.0660     0.5480 c3         0 MOL      -0.077400
     11 C8           8.3780    -2.9620     0.0100 c3         0 MOL      -0.080400
     12 C9           9.7360    -2.3580     0.3720 c3         0 MOL      -0.077400
     13 C10         10.8530    -3.2540    -0.1660 c3         0 MOL      -0.078400
     14 C11         12.2110    -2.6490     0.1960 c3         0 MOL      -0.085400
     15 C12         13.3280    -3.5450    -0.3420 c3         0 MOL       0.140400
     16 O2          14.6170    -2.9710     0.0020 os         0 MOL      -0.437900
     17 C13         15.7530    -3.5930    -0.3720 c          0 MOL       0.627300
     18 C14         17.0570    -3.0120    -0.0230 ce         0 MOL      -0.207200
     19 C15         18.1790    -3.6260    -0.3920 c2         0 MOL      -0.138000
     20 O3          15.6990    -4.6340    -0.9960 o          0 MOL      -0.547000
     21 C16          0.0000    -1.5320     0.8710 ca         0 MOL       0.012100
     22 O4           0.0000    -0.3670     1.5700 os         0 MOL      -0.321900
     23 C17         -0.0000     0.6910     0.6090 c3         0 MOL       0.129400
     24 C18         -0.0000     2.0390     1.3340 c3         0 MOL      -0.083400
     25 C19         -0.0000     3.1710     0.3050 c3         0 MOL      -0.077400
     26 C20         -0.0000     4.5180     1.0300 c3         0 MOL      -0.078400
     27 C21         -0.0000     5.6510     0.0010 c3         0 MOL      -0.079400
     28 C22         -0.0010     6.9980     0.7260 c3         0 MOL      -0.078400
     29 C23         -0.0010     8.1310    -0.3020 c3         0 MOL      -0.078400
     30 C24         -0.0010     9.4780     0.4230 c3         0 MOL      -0.085400
     31 C25         -0.0010    10.6110    -0.6060 c3         0 MOL       0.140400
     32 O5          -0.0010    11.8900     0.0820 os         0 MOL      -0.437900
     33 C26         -0.0010    13.0360    -0.6270 c          0 MOL       0.627300
     34 C27         -0.0010    14.3300     0.0700 ce         0 MOL      -0.207200
     35 C28         -0.0010    15.4620    -0.6300 c2         0 MOL      -0.137000
     36 O6          -0.0010    13.0000    -1.8420 o          0 MOL      -0.548000
     37 C29         -1.2070    -2.1280     0.5130 ca         0 MOL       0.103600
     38 O7          -2.3840    -1.5420     0.8640 os         0 MOL      -0.337400
     39 C30         -3.4270    -2.3800     0.3610 c3         0 MOL       0.128900
     40 C31         -4.7850    -1.7750     0.7230 c3         0 MOL      -0.085400
     41 C32         -5.9020    -2.6710     0.1860 c3         0 MOL      -0.079400
     42 C33         -7.2600    -2.0670     0.5480 c3         0 MOL      -0.077400
     43 C34         -8.3770    -2.9630     0.0100 c3         0 MOL      -0.080400
     44 C35         -9.7350    -2.3580     0.3720 c3         0 MOL      -0.077400
     45 C36        -10.8520    -3.2540    -0.1660 c3         0 MOL      -0.078400
     46 C37        -12.2100    -2.6500     0.1960 c3         0 MOL      -0.085400
     47 C38        -13.3280    -3.5460    -0.3420 c3         0 MOL       0.140400
     48 O8         -14.6160    -2.9720     0.0020 os         0 MOL      -0.437900
     49 C39        -15.7520    -3.5940    -0.3710 c          0 MOL       0.627300
     50 C40        -17.0570    -3.0140    -0.0230 ce         0 MOL      -0.207200
     51 C41        -18.1780    -3.6280    -0.3920 c2         0 MOL      -0.138000
     52 O9         -15.6980    -4.6360    -0.9960 o          0 MOL      -0.547000
     53 C42         -1.2100    -3.3090    -0.2030 ca         0 MOL      -0.193500
     54 O10          1.0600    -5.7030    -1.6270 o          0 MOL      -0.825300
     55 H            2.1470    -3.7740    -0.4740 ha         0 MOL       0.163000
     56 H1           3.3420    -3.3720     0.8040 h1         0 MOL       0.044200
     57 H2           3.3410    -2.4560    -0.7230 h1         0 MOL       0.044200
     58 H3           4.8710    -0.7820     0.2820 hc         0 MOL       0.049450
     59 H4           4.8710    -1.6980     1.8080 hc         0 MOL       0.049450
     60 H5           5.8170    -3.6630     0.6280 hc         0 MOL       0.043200
     61 H6           5.8170    -2.7470    -0.8980 hc         0 MOL       0.043200
     62 H7           7.3460    -1.0740     0.1060 hc         0 MOL       0.038200
     63 H8           7.3470    -1.9900     1.6320 hc         0 MOL       0.038200
     64 H9           8.2920    -3.9550     0.4520 hc         0 MOL       0.041200
     65 H10          8.2920    -3.0390    -1.0740 hc         0 MOL       0.041200
     66 H11          9.8210    -1.3650    -0.0700 hc         0 MOL       0.039700
     67 H12          9.8220    -2.2810     1.4560 hc         0 MOL       0.039700
     68 H13         10.7680    -4.2460     0.2760 hc         0 MOL       0.043700
     69 H14         10.7670    -3.3300    -1.2500 hc         0 MOL       0.043700
     70 H15         12.2960    -1.6560    -0.2460 hc         0 MOL       0.053700
     71 H16         12.2970    -2.5720     1.2800 hc         0 MOL       0.053700
     72 H17         13.2430    -4.5380     0.1000 h1         0 MOL       0.052700
     73 H18         13.2420    -3.6220    -1.4260 h1         0 MOL       0.052700
     74 H19         17.1050    -2.0870     0.5320 ha         0 MOL       0.153000
     75 H20         19.1370    -3.2000    -0.1370 ha         0 MOL       0.129000
     76 H21         18.1300    -4.5520    -0.9480 ha         0 MOL       0.129000
     77 H22          0.8900     0.6150    -0.0160 h1         0 MOL       0.036200
     78 H23         -0.8900     0.6150    -0.0160 h1         0 MOL       0.036200
     79 H24         -0.8900     2.1150     1.9580 hc         0 MOL       0.049700
     80 H25          0.8900     2.1150     1.9580 hc         0 MOL       0.049700
     81 H26          0.8900     3.0950    -0.3200 hc         0 MOL       0.039200
     82 H27         -0.8900     3.0950    -0.3200 hc         0 MOL       0.039200
     83 H28         -0.8900     4.5950     1.6550 hc         0 MOL       0.038700
     84 H29          0.8900     4.5950     1.6550 hc         0 MOL       0.038700
     85 H30          0.8890     5.5750    -0.6230 hc         0 MOL       0.039700
     86 H31         -0.8900     5.5740    -0.6230 hc         0 MOL       0.039700
     87 H32         -0.8900     7.0750     1.3510 hc         0 MOL       0.040700
     88 H33          0.8900     7.0750     1.3510 hc         0 MOL       0.040700
     89 H34          0.8890     8.0550    -0.9270 hc         0 MOL       0.042700
     90 H35         -0.8910     8.0540    -0.9270 hc         0 MOL       0.042700
     91 H36         -0.8910     9.5550     1.0470 hc         0 MOL       0.053700
     92 H37          0.8890     9.5550     1.0470 hc         0 MOL       0.053700
     93 H38          0.8890    10.5350    -1.2310 h1         0 MOL       0.052700
     94 H39         -0.8910    10.5340    -1.2310 h1         0 MOL       0.052700
     95 H40         -0.0010    14.3630     1.1490 ha         0 MOL       0.154000
     96 H41         -0.0010    16.4140    -0.1180 ha         0 MOL       0.129000
     97 H42         -0.0010    15.4300    -1.7100 ha         0 MOL       0.129000
     98 H43         -3.3410    -2.4560    -0.7230 h1         0 MOL       0.044200
     99 H44         -3.3410    -3.3720     0.8040 h1         0 MOL       0.044200
    100 H45         -4.8710    -1.6980     1.8070 hc         0 MOL       0.049450
    101 H46         -4.8700    -0.7820     0.2810 hc         0 MOL       0.049450
    102 H47         -5.8160    -2.7480    -0.8980 hc         0 MOL       0.043200
    103 H48         -5.8170    -3.6640     0.6280 hc         0 MOL       0.043200
    104 H49         -7.3460    -1.9900     1.6320 hc         0 MOL       0.038200
    105 H50         -7.3460    -1.0740     0.1050 hc         0 MOL       0.038200
    106 H51         -8.2910    -3.0400    -1.0740 hc         0 MOL       0.041200
    107 H52         -8.2920    -3.9550     0.4520 hc         0 MOL       0.041200
    108 H53         -9.8210    -2.2810     1.4560 hc         0 MOL       0.039700
    109 H54         -9.8210    -1.3660    -0.0710 hc         0 MOL       0.039700
    110 H55        -10.7660    -3.3310    -1.2500 hc         0 MOL       0.043700
    111 H56        -10.7670    -4.2470     0.2770 hc         0 MOL       0.043700
    112 H57        -12.2960    -2.5730     1.2800 hc         0 MOL       0.053700
    113 H58        -12.2960    -1.6570    -0.2460 hc         0 MOL       0.053700
    114 H59        -13.2420    -3.6230    -1.4250 h1         0 MOL       0.052700
    115 H60        -13.2420    -4.5390     0.1010 h1         0 MOL       0.052700
    116 H61        -17.1050    -2.0880     0.5310 ha         0 MOL       0.153000
    117 H62        -19.1370    -3.2010    -0.1360 ha         0 MOL       0.129000
    118 H63        -18.1300    -4.5530    -0.9470 ha         0 MOL       0.129000
    119 H64         -2.1470    -3.7710    -0.4800 ha         0 MOL       0.163000
@<TRIPOS>BOND
     1     1     2 1   
     2     2     3 1   
     3     2    54 1   
     4     3     4 ar  
     5     3    53 ar  
     6     4     5 ar  
     7     4    55 1   
     8     5     6 1   
     9     5    21 ar  
    10     6     7 1   
    11     7     8 1   
    12     7    56 1   
    13     7    57 1   
    14     8     9 1   
    15     8    58 1   
    16     8    59 1   
    17     9    10 1   
    18     9    60 1   
    19     9    61 1   
    20    10    11 1   
    21    10    62 1   
    22    10    63 1   
    23    11    12 1   
    24    11    64 1   
    25    11    65 1   
    26    12    13 1   
    27    12    66 1   
    28    12    67 1   
    29    13    14 1   
    30    13    68 1   
    31    13    69 1   
    32    14    15 1   
    33    14    70 1   
    34    14    71 1   
    35    15    16 1   
    36    15    72 1   
    37    15    73 1   
    38    16    17 1   
    39    17    18 1   
    40    17    20 2   
    41    18    19 2   
    42    18    74 1   
    43    19    75 1   
    44    19    76 1   
    45    21    22 1   
    46    21    37 ar  
    47    22    23 1   
    48    23    24 1   
    49    23    77 1   
    50    23    78 1   
    51    24    25 1   
    52    24    79 1   
    53    24    80 1   
    54    25    26 1   
    55    25    81 1   
    56    25    82 1   
    57    26    27 1   
    58    26    83 1   
    59    26    84 1   
    60    27    28 1   
    61    27    85 1   
    62    27    86 1   
    63    28    29 1   
    64    28    87 1   
    65    28    88 1   
    66    29    30 1   
    67    29    89 1   
    68    29    90 1   
    69    30    31 1   
    70    30    91 1   
    71    30    92 1   
    72    31    32 1   
    73    31    93 1   
    74    31    94 1   
    75    32    33 1   
    76    33    34 1   
    77    33    36 2   
    78    34    35 2   
    79    34    95 1   
    80    35    96 1   
    81    35    97 1   
    82    37    38 1   
    83    37    53 ar  
    84    38    39 1   
    85    39    40 1   
    86    39    98 1   
    87    39    99 1   
    88    40    41 1   
    89    40   100 1   
    90    40   101 1   
    91    41    42 1   
    92    41   102 1   
    93    41   103 1   
    94    42    43 1   
    95    42   104 1   
    96    42   105 1   
    97    43    44 1   
    98    43   106 1   
    99    43   107 1   
   100    44    45 1   
   101    44   108 1   
   102    44   109 1   
   103    45    46 1   
   104    45   110 1   
   105    45   111 1   
   106    46    47 1   
   107    46   112 1   
   108    46   113 1   
   109    47    48 1   
   110    47   114 1   
   111    47   115 1   
   112    48    49 1   
   113    49    50 1   
   114    49    52 2   
   115    50    51 2   
   116    50   116 1   
   117    51   117 1   
   118    51   118 1   
   119    53   119 1   
@<TRIPOS>SUBSTRUCTURE
     1 MOL         1 TEMP              0 ****  ****    0 ROOT
