@<TRIPOS>MOLECULE
HII
  278   279     1     0     0
SMALL
bcc


@<TRIPOS>ATOM
      1 C         -22.7540  -21.6130   16.1850 ca        1 HII     -0.108000
      2 C1        -22.1560  -20.3540   16.0090 ca        1 HII      0.051100
      3 C2        -21.6010  -19.9990   14.7640 ca        1 HII      0.018100
      4 C3        -21.5770  -20.9420   13.7130 ca        1 HII      0.063100
      5 C4        -22.1800  -22.2040   13.9020 ca        1 HII     -0.107000
      6 C5        -22.7880  -22.5590   15.1330 ca        1 HII     -0.114600
      7 C6        -14.9460  -20.8240  -11.9280 c2        1 HII      0.037900
      8 C7        -14.4120  -20.2850  -13.1800 c3        1 HII      0.205300
      9 C8        -15.0640  -20.9510  -14.4450 c3        1 HII      0.165300
     10 C9        -15.4140  -22.3520  -14.2170 c2        1 HII     -0.249200
     11 C10       -15.6270  -22.8700  -12.9860 ce        1 HII     -0.081200
     12 C11       -15.5060  -22.0490  -11.8870 ce        1 HII     -0.172000
     13 O         -22.1280  -19.4710   17.0480 os        1 HII     -0.351900
     14 O1        -21.0520  -18.7560   14.5970 os        1 HII     -0.355900
     15 O2        -20.9780  -20.6300   12.5160 os        1 HII     -0.346900
     16 O3        -14.8470  -20.1170  -10.7840 os        1 HII     -0.329900
     17 O4        -14.5710  -18.8460  -13.1640 os        1 HII     -0.383600
     18 O5        -16.2420  -20.2020  -14.8200 os        1 HII     -0.419600
     19 C12       -20.9320  -19.5810   17.8470 c3        1 HII      0.127400
     20 C13       -20.9370  -18.4530   18.9010 c3        1 HII     -0.079400
     21 C14       -20.9390  -17.0370   18.2640 c3        1 HII     -0.079400
     22 C15       -20.8940  -15.9130   19.3320 c3        1 HII     -0.078400
     23 C16       -20.9010  -14.4960   18.7020 c3        1 HII     -0.079400
     24 C17       -20.8980  -13.3660   19.7660 c3        1 HII     -0.078400
     25 C18       -20.8850  -11.9570   19.1160 c3        1 HII     -0.079400
     26 C19       -20.8940  -10.8040   20.1550 c3        1 HII     -0.078400
     27 C20       -20.8360   -9.4090   19.4770 c3        1 HII     -0.078400
     28 C21       -21.0150   -8.2330   20.4730 c3        1 HII     -0.085400
     29 C22       -20.7820   -6.8490   19.8090 c3        1 HII      0.141400
     30 C23       -21.9750  -17.7880   14.0530 c3        1 HII      0.128400
     31 C24       -21.2520  -16.4330   13.8750 c3        1 HII     -0.079400
     32 C25       -20.0980  -16.5130   12.8370 c3        1 HII     -0.083400
     33 C26       -19.4250  -15.1390   12.5770 c3        1 HII     -0.077400
     34 C27       -18.2540  -15.2400   11.5620 c3        1 HII     -0.082400
     35 C28       -17.5420  -13.8840   11.3030 c3        1 HII     -0.078400
     36 C29       -16.3450  -14.0520   10.3300 c3        1 HII     -0.083400
     37 C30       -15.5500  -12.7500   10.0480 c3        1 HII     -0.077400
     38 C31       -14.3840  -12.9890    9.0520 c3        1 HII     -0.081400
     39 C32       -13.5760  -11.6750    8.7200 c3        1 HII     -0.086400
     40 C33       -12.4340  -11.7040    7.6430 c3        1 HII      0.139400
     41 C34       -19.5620  -20.9260   12.5160 c3        1 HII      0.129400
     42 C35       -18.9040  -20.5210   11.1710 c3        1 HII     -0.086400
     43 C36       -17.3750  -20.8030   11.1660 c3        1 HII     -0.079400
     44 C37       -16.6660  -20.4700    9.8240 c3        1 HII     -0.079400
     45 C38       -15.1580  -20.8460    9.8620 c3        1 HII     -0.081400
     46 C39       -14.4030  -20.6040    8.5260 c3        1 HII     -0.080400
     47 C40       -12.9280  -21.1000    8.5940 c3        1 HII     -0.081400
     48 C41       -12.1350  -20.8520    7.2830 c3        1 HII     -0.079400
     49 C42       -10.7030  -21.4620    7.2770 c3        1 HII     -0.080400
     50 C43        -9.8990  -21.0310    6.0170 c3        1 HII     -0.089400
     51 C44        -8.5210  -21.7310    5.8420 c3        1 HII      0.138400
     52 C45       -13.6170  -20.3660  -10.0670 c3        1 HII      0.127400
     53 C46       -13.6170  -19.6090   -8.7160 c3        1 HII     -0.084400
     54 C47       -12.3180  -19.8750   -7.9050 c3        1 HII     -0.078400
     55 C48       -12.2550  -19.1570   -6.5260 c3        1 HII     -0.077400
     56 C49       -10.9460  -19.5100   -5.7630 c3        1 HII     -0.079400
     57 C50       -10.7700  -18.8120   -4.3840 c3        1 HII     -0.078400
     58 C51        -9.4310  -19.2320   -3.7070 c3        1 HII     -0.079400
     59 C52        -9.1450  -18.5310   -2.3520 c3        1 HII     -0.078400
     60 C53        -7.7890  -18.9670   -1.7260 c3        1 HII     -0.075400
     61 C54        -7.4990  -18.2450   -0.3820 c3        1 HII     -0.110400
     62 C55        -6.1790  -18.6870    0.2920 c3        1 HII      0.137400
     63 C56       -13.7980  -18.1150  -14.1360 c3        1 HII      0.133400
     64 C57       -14.0800  -16.6050  -13.9740 c3        1 HII     -0.084400
     65 C58       -13.3560  -15.7600  -15.0530 c3        1 HII     -0.078400
     66 C59       -13.6270  -14.2390  -14.9050 c3        1 HII     -0.079400
     67 C60       -12.9880  -13.4240  -16.0590 c3        1 HII     -0.079400
     68 C61       -13.1760  -11.8890  -15.9120 c3        1 HII     -0.080400
     69 C62       -12.5270  -11.1340  -17.1030 c3        1 HII     -0.079400
     70 C63       -12.6450   -9.5880  -17.0390 c3        1 HII     -0.078400
     71 C64       -11.9190   -8.9250  -18.2430 c3        1 HII     -0.078400
     72 C65       -12.1290   -7.3920  -18.3630 c3        1 HII     -0.086400
     73 C66       -11.2740   -6.7610  -19.5010 c3        1 HII      0.141400
     74 C67       -16.7620  -20.4230  -16.1500 c3        1 HII      0.129400
     75 C68       -17.9560  -19.4720  -16.3910 c3        1 HII     -0.078400
     76 C69       -17.5450  -17.9740  -16.3970 c3        1 HII     -0.081400
     77 C70       -18.7500  -17.0450  -16.6900 c3        1 HII     -0.077400
     78 C71       -18.3440  -15.5510  -16.7750 c3        1 HII     -0.080400
     79 C72       -19.5550  -14.6260  -17.0720 c3        1 HII     -0.079400
     80 C73       -19.1390  -13.1350  -17.1860 c3        1 HII     -0.080400
     81 C74       -20.3260  -12.1860  -17.5050 c3        1 HII     -0.078400
     82 C75       -19.8850  -10.6990  -17.5880 c3        1 HII     -0.079400
     83 C76       -21.0080   -9.7430  -18.0780 c3        1 HII     -0.087400
     84 C77       -20.6160   -8.2400  -17.9890 c3        1 HII      0.140400
     85 O6        -21.7110   -5.8720   20.3000 os        1 HII     -0.444900
     86 O7        -11.8640  -10.3530    7.4780 os        1 HII     -0.442900
     87 O8         -7.4160  -20.8110    5.8910 os        1 HII     -0.442900
     88 O9         -6.0780  -18.0370    1.5640 os        1 HII     -0.441900
     89 O10       -11.9950   -5.7390  -20.2100 os        1 HII     -0.437900
     90 O11       -21.1110   -7.4970  -19.1140 os        1 HII     -0.441900
     91 C78       -21.5720   -4.5110   20.2310 c         1 HII      0.629300
     92 C79       -10.8820   -9.7950    6.6390 c         1 HII      0.638300
     93 C80        -6.0980  -21.1350    5.6800 c         1 HII      0.638100
     94 C81        -5.0340  -18.1900    2.4200 c         1 HII      0.631100
     95 C82       -11.4510   -4.7400  -20.9770 c         1 HII      0.633300
     96 C83       -21.2900   -6.1400  -19.1930 c         1 HII      0.635300
     97 O12       -20.4980   -4.0050   19.8280 o         1 HII     -0.542000
     98 O13        -9.8510   -9.3550    7.1950 o         1 HII     -0.557000
     99 O14        -5.7820  -22.3050    5.3560 o         1 HII     -0.553000
    100 C84       -22.5840   -3.6630   20.6330 ce        1 HII     -0.210200
    101 C85       -23.8560   -4.0450   20.8040 c2        1 HII     -0.133000
    102 C86       -11.0320   -9.6530    5.2750 ce        1 HII     -0.209200
    103 C87       -12.1580   -9.9230    4.6050 c2        1 HII     -0.127000
    104 C88        -5.0280  -20.1120    5.8190 c3        1 HII     -0.117700
    105 C89        -4.9400  -19.6040    7.2840 c3        1 HII     -0.087100
    106 O15        -4.1650  -17.2890    2.4700 o         1 HII     -0.553000
    107 C90        -4.9710  -19.3430    3.3390 c3        1 HII     -0.133400
    108 C91        -5.2300  -18.9350    4.8150 c3        1 HII     -0.071400
    109 O16       -10.2090   -4.5720  -21.0070 o         1 HII     -0.553000
    110 C92       -12.2420   -3.8730  -21.7080 ce        1 HII     -0.226200
    111 O17       -21.1600   -5.4230  -18.1730 o         1 HII     -0.555000
    112 C93       -21.6520   -5.5320  -20.3790 ce        1 HII     -0.214200
    113 C94       -21.5550   -6.1200  -21.5770 c2        1 HII     -0.127000
    114 C95       -13.5220   -4.1070  -22.0180 c2        1 HII     -0.124000
    115 O18       -23.9330  -24.2230   16.5080 o         1 HII     -0.823800
    116 C96       -23.4120  -23.8210   15.3230 c         1 HII      0.910200
    117 O19       -23.4180  -24.6730   14.4050 o         1 HII     -0.823800
    118 O20       -16.0700  -25.0740  -13.8830 o         1 HII     -0.829800
    119 C97       -15.9650  -24.2240  -12.8310 c         1 HII      0.906800
    120 O21       -16.1670  -24.7510  -11.7120 o         1 HII     -0.829800
    121 H         -23.1620  -21.8290   17.0970 ha        1 HII      0.169000
    122 H1        -22.1590  -22.8690   13.1250 ha        1 HII      0.170000
    123 H2        -13.3450  -20.5340  -13.1640 h1        1 HII      0.039700
    124 H3        -14.3220  -20.9040  -15.2500 h1        1 HII      0.015700
    125 H4        -15.5050  -22.9230  -15.0260 ha        1 HII      0.146000
    126 H5        -15.8340  -22.3640  -11.0020 ha        1 HII      0.169000
    127 H6        -20.9080  -20.5450   18.3670 h1        1 HII      0.040700
    128 H7        -20.0230  -19.4920   17.2400 h1        1 HII      0.040700
    129 H8        -20.0510  -18.5680   19.5320 hc        1 HII      0.044200
    130 H9        -21.8240  -18.5680   19.5320 hc        1 HII      0.044200
    131 H10       -21.8450  -16.9140   17.6620 hc        1 HII      0.047700
    132 H11       -20.0750  -16.9370   17.6010 hc        1 HII      0.047700
    133 H12       -21.7610  -16.0170   19.9910 hc        1 HII      0.036200
    134 H13       -19.9880  -16.0310   19.9340 hc        1 HII      0.036200
    135 H14       -21.7890  -14.3900   18.0730 hc        1 HII      0.040700
    136 H15       -20.0180  -14.3900   18.0650 hc        1 HII      0.040700
    137 H16       -20.0160  -13.4740   20.4040 hc        1 HII      0.037700
    138 H17       -21.7880  -13.4630   20.3940 hc        1 HII      0.037700
    139 H18       -21.7660  -11.8590   18.4750 hc        1 HII      0.040700
    140 H19       -19.9950  -11.8650   18.4880 hc        1 HII      0.040700
    141 H20       -21.8020  -10.8750   20.7590 hc        1 HII      0.039700
    142 H21       -20.0320  -10.9100   20.8190 hc        1 HII      0.039700
    143 H22       -19.8740   -9.3090   18.9660 hc        1 HII      0.043700
    144 H23       -21.6280   -9.3440   18.7240 hc        1 HII      0.043700
    145 H24       -22.0260   -8.2800   20.8880 hc        1 HII      0.052700
    146 H25       -20.3090   -8.3500   21.3020 hc        1 HII      0.052700
    147 H26       -19.7490   -6.5380   19.9940 h1        1 HII      0.053700
    148 H27       -20.9290   -6.9050   18.7270 h1        1 HII      0.053700
    149 H28       -22.3570  -18.1160   13.0790 h1        1 HII      0.044700
    150 H29       -22.8260  -17.6430   14.7280 h1        1 HII      0.044700
    151 H30       -21.9860  -15.6900   13.5490 hc        1 HII      0.041200
    152 H31       -20.8570  -16.1120   14.8450 hc        1 HII      0.041200
    153 H32       -20.4940  -16.8970   11.8920 hc        1 HII      0.051200
    154 H33       -19.3440  -17.2180   13.2010 hc        1 HII      0.051200
    155 H34       -19.0460  -14.7450   13.5240 hc        1 HII      0.034200
    156 H35       -20.1760  -14.4450   12.1890 hc        1 HII      0.034200
    157 H36       -18.6430  -15.6260   10.6160 hc        1 HII      0.043200
    158 H37       -17.5230  -15.9590   11.9440 hc        1 HII      0.043200
    159 H38       -18.2620  -13.1790   10.8810 hc        1 HII      0.036700
    160 H39       -17.1850  -13.4790   12.2530 hc        1 HII      0.036700
    161 H40       -16.7250  -14.4430    9.3830 hc        1 HII      0.042700
    162 H41       -15.6570  -14.7900   10.7490 hc        1 HII      0.042700
    163 H42       -15.1430  -12.3610   10.9850 hc        1 HII      0.039200
    164 H43       -16.2250  -11.9990    9.6320 hc        1 HII      0.039200
    165 H44       -13.6930  -13.7270    9.4680 hc        1 HII      0.044700
    166 H45       -14.7840  -13.3910    8.1180 hc        1 HII      0.044700
    167 H46       -13.1290  -11.3180    9.6510 hc        1 HII      0.053200
    168 H47       -14.2920  -10.9190    8.3930 hc        1 HII      0.053200
    169 H48       -11.6450  -12.3870    7.9590 h1        1 HII      0.053700
    170 H49       -12.8380  -12.0540    6.6950 h1        1 HII      0.053700
    171 H50       -19.4100  -22.0000   12.6670 h1        1 HII      0.040700
    172 H51       -19.0580  -20.3810   13.3230 h1        1 HII      0.040700
    173 H52       -19.3800  -21.0840   10.3630 hc        1 HII      0.050700
    174 H53       -19.0790  -19.4560   10.9950 hc        1 HII      0.050700
    175 H54       -16.9070  -20.2170   11.9640 hc        1 HII      0.040200
    176 H55       -17.2170  -21.8620   11.3920 hc        1 HII      0.040200
    177 H56       -16.7700  -19.4010    9.6200 hc        1 HII      0.040200
    178 H57       -17.1520  -21.0230    9.0150 hc        1 HII      0.040200
    179 H58       -14.6700  -20.2650   10.6490 hc        1 HII      0.039200
    180 H59       -15.0700  -21.9050   10.1200 hc        1 HII      0.039200
    181 H60       -14.4140  -19.5350    8.2930 hc        1 HII      0.040700
    182 H61       -14.9210  -21.1330    7.7210 hc        1 HII      0.040700
    183 H62       -12.9290  -22.1710    8.8130 hc        1 HII      0.039700
    184 H63       -12.4130  -20.5870    9.4110 hc        1 HII      0.039700
    185 H64       -12.6920  -21.2810    6.4470 hc        1 HII      0.041700
    186 H65       -12.0650  -19.7740    7.1220 hc        1 HII      0.041700
    187 H66       -10.1610  -21.1430    8.1710 hc        1 HII      0.041700
    188 H67       -10.7830  -22.5540    7.3010 hc        1 HII      0.041700
    189 H68       -10.5090  -21.2470    5.1330 hc        1 HII      0.054700
    190 H69        -9.7520  -19.9500    6.0500 hc        1 HII      0.054700
    191 H70        -8.3700  -22.4980    6.6060 h1        1 HII      0.051700
    192 H71        -8.5030  -22.2230    4.8670 h1        1 HII      0.051700
    193 H72       -12.7640  -20.0250  -10.6630 h1        1 HII      0.042700
    194 H73       -13.5020  -21.4370   -9.8640 h1        1 HII      0.042700
    195 H74       -14.4810  -19.9330   -8.1300 hc        1 HII      0.049700
    196 H75       -13.7170  -18.5380   -8.9110 hc        1 HII      0.049700
    197 H76       -11.4600  -19.5550   -8.5060 hc        1 HII      0.042200
    198 H77       -12.2290  -20.9530   -7.7420 hc        1 HII      0.042200
    199 H78       -12.3030  -18.0760   -6.6840 hc        1 HII      0.037200
    200 H79       -13.1170  -19.4560   -5.9230 hc        1 HII      0.037200
    201 H80       -10.0970  -19.2370   -6.3970 hc        1 HII      0.040700
    202 H81       -10.9170  -20.5930   -5.6080 hc        1 HII      0.040700
    203 H82       -11.6050  -19.0800   -3.7300 hc        1 HII      0.037700
    204 H83       -10.7820  -17.7270   -4.5260 hc        1 HII      0.037700
    205 H84        -8.6070  -19.0080   -4.3900 hc        1 HII      0.040200
    206 H85        -9.4490  -20.3130   -3.5400 hc        1 HII      0.040200
    207 H86        -9.1330  -17.4490   -2.5060 hc        1 HII      0.040200
    208 H87        -9.9530  -18.7660   -1.6530 hc        1 HII      0.040200
    209 H88        -7.8050  -20.0470   -1.5580 hc        1 HII      0.041200
    210 H89        -6.9790  -18.7480   -2.4270 hc        1 HII      0.041200
    211 H90        -7.4540  -17.1660   -0.5580 hc        1 HII      0.054200
    212 H91        -8.3230  -18.4440    0.3100 hc        1 HII      0.054200
    213 H92        -6.1790  -19.7710    0.4360 h1        1 HII      0.063200
    214 H93        -5.3260  -18.4090   -0.3340 h1        1 HII      0.063200
    215 H94       -14.0740  -18.4200  -15.1490 h1        1 HII      0.022700
    216 H95       -12.7310  -18.2960  -13.9820 h1        1 HII      0.022700
    217 H96       -15.1570  -16.4390  -14.0520 hc        1 HII      0.055200
    218 H97       -13.7570  -16.2850  -12.9790 hc        1 HII      0.055200
    219 H98       -13.6940  -16.0870  -16.0410 hc        1 HII      0.036200
    220 H99       -12.2780  -15.9380  -14.9850 hc        1 HII      0.036200
    221 H100      -13.2130  -13.8990  -13.9510 hc        1 HII      0.040700
    222 H101      -14.7070  -14.0610  -14.8980 hc        1 HII      0.040700
    223 H102      -13.4350  -13.7500  -17.0030 hc        1 HII      0.038700
    224 H103      -11.9170  -13.6450  -16.1000 hc        1 HII      0.038700
    225 H104      -14.2440  -11.6580  -15.8720 hc        1 HII      0.039200
    226 H105      -12.7160  -11.5550  -14.9770 hc        1 HII      0.039200
    227 H106      -13.0010  -11.4780  -18.0270 hc        1 HII      0.039700
    228 H107      -11.4670  -11.4040  -17.1470 hc        1 HII      0.039700
    229 H108      -12.2020   -9.2270  -16.1070 hc        1 HII      0.039200
    230 H109      -13.7010   -9.3060  -17.0470 hc        1 HII      0.039200
    231 H110      -10.8490   -9.1330  -18.1550 hc        1 HII      0.042700
    232 H111      -12.2770   -9.3870  -19.1680 hc        1 HII      0.042700
    233 H112      -11.8610   -6.9180  -17.4140 hc        1 HII      0.054200
    234 H113      -13.1900   -7.1980  -18.5470 hc        1 HII      0.054200
    235 H114      -10.3560   -6.3560  -19.0650 h1        1 HII      0.050700
    236 H115      -10.9890   -7.5170  -20.2380 h1        1 HII      0.050700
    237 H116      -17.1100  -21.4540  -16.2570 h1        1 HII      0.035200
    238 H117      -15.9960  -20.2380  -16.9080 h1        1 HII      0.035200
    239 H118      -18.7020  -19.6380  -15.6090 hc        1 HII      0.044700
    240 H119      -18.4130  -19.7220  -17.3530 hc        1 HII      0.044700
    241 H120      -16.7750  -17.8140  -17.1580 hc        1 HII      0.045700
    242 H121      -17.1220  -17.7080  -15.4240 hc        1 HII      0.045700
    243 H122      -19.2070  -17.3400  -17.6390 hc        1 HII      0.036700
    244 H123      -19.4950  -17.1710  -15.8990 hc        1 HII      0.036700
    245 H124      -17.6000  -15.4310  -17.5690 hc        1 HII      0.039700
    246 H125      -17.8840  -15.2520  -15.8290 hc        1 HII      0.039700
    247 H126      -20.2910  -14.7350  -16.2700 hc        1 HII      0.038700
    248 H127      -20.0220  -14.9400  -18.0110 hc        1 HII      0.038700
    249 H128      -18.3900  -13.0400  -17.9780 hc        1 HII      0.040200
    250 H129      -18.6770  -12.8270  -16.2430 hc        1 HII      0.040200
    251 H130      -20.7730  -12.4850  -18.4570 hc        1 HII      0.041200
    252 H131      -21.0870  -12.2880  -16.7260 hc        1 HII      0.041200
    253 H132      -19.5440  -10.3810  -16.5990 hc        1 HII      0.043200
    254 H133      -19.0410  -10.6180  -18.2790 hc        1 HII      0.043200
    255 H134      -21.2510   -9.9980  -19.1130 hc        1 HII      0.053700
    256 H135      -21.9070   -9.9050  -17.4750 hc        1 HII      0.053700
    257 H136      -20.9920   -7.8310  -17.0460 h1        1 HII      0.054200
    258 H137      -19.5300   -8.1230  -17.9980 h1        1 HII      0.054200
    259 H138      -22.3630   -2.7050   20.7950 ha        1 HII      0.153000
    260 H139      -24.1440   -4.9800   20.6430 ha        1 HII      0.128500
    261 H140      -24.5390   -3.3840   21.0880 ha        1 HII      0.128500
    262 H141      -10.2600   -9.3070    4.7530 ha        1 HII      0.153000
    263 H142      -12.9760  -10.2440    5.0600 ha        1 HII      0.128500
    264 H143      -12.1920   -9.7910    3.6240 ha        1 HII      0.128500
    265 H144       -4.0610  -20.5840    5.6040 hc        1 HII      0.107700
    266 H145       -4.1080  -18.9040    7.3910 hc        1 HII      0.046367
    267 H146       -5.8570  -19.0890    7.5720 hc        1 HII      0.046367
    268 H147       -4.7710  -20.4350    7.9750 hc        1 HII      0.046367
    269 H148       -5.7180  -20.0840    3.0390 hc        1 HII      0.091700
    270 H149       -3.9820  -19.8030    3.2480 hc        1 HII      0.091700
    271 H150       -4.5450  -18.1250    5.0780 hc        1 HII      0.071700
    272 H151       -6.2470  -18.5400    4.9100 hc        1 HII      0.071700
    273 H152      -11.8360   -3.0230  -22.0350 ha        1 HII      0.147000
    274 H153      -21.9900   -4.5940  -20.3500 ha        1 HII      0.151000
    275 H154      -21.2060   -7.0440  -21.6750 ha        1 HII      0.130500
    276 H155      -21.8190   -5.6290  -22.3970 ha        1 HII      0.130500
    277 H156      -13.9800   -4.9410  -21.7360 ha        1 HII      0.139000
    278 H157      -14.0360   -3.4430  -22.5480 ha        1 HII      0.139000
@<TRIPOS>BOND
     1    1    2 ar  
     2    1    6 ar  
     3    1  121 1   
     4    2    3 ar  
     5    2   13 1   
     6    3    4 ar  
     7    3   14 1   
     8    4    5 ar  
     9    4   15 1   
    10    5    6 ar  
    11    5  122 1   
    12    6  116 1   
    13    7    8 1   
    14    7   12 2   
    15    7   16 1   
    16    8    9 1   
    17    8   17 1   
    18    8  123 1   
    19    9   10 1   
    20    9   18 1   
    21    9  124 1   
    22   10   11 2   
    23   10  125 1   
    24   11   12 1   
    25   11  119 1   
    26   12  126 1   
    27   13   19 1   
    28   14   30 1   
    29   15   41 1   
    30   16   52 1   
    31   17   63 1   
    32   18   74 1   
    33   19   20 1   
    34   19  127 1   
    35   19  128 1   
    36   20   21 1   
    37   20  129 1   
    38   20  130 1   
    39   21   22 1   
    40   21  131 1   
    41   21  132 1   
    42   22   23 1   
    43   22  133 1   
    44   22  134 1   
    45   23   24 1   
    46   23  135 1   
    47   23  136 1   
    48   24   25 1   
    49   24  137 1   
    50   24  138 1   
    51   25   26 1   
    52   25  139 1   
    53   25  140 1   
    54   26   27 1   
    55   26  141 1   
    56   26  142 1   
    57   27   28 1   
    58   27  143 1   
    59   27  144 1   
    60   28   29 1   
    61   28  145 1   
    62   28  146 1   
    63   29   85 1   
    64   29  147 1   
    65   29  148 1   
    66   30   31 1   
    67   30  149 1   
    68   30  150 1   
    69   31   32 1   
    70   31  151 1   
    71   31  152 1   
    72   32   33 1   
    73   32  153 1   
    74   32  154 1   
    75   33   34 1   
    76   33  155 1   
    77   33  156 1   
    78   34   35 1   
    79   34  157 1   
    80   34  158 1   
    81   35   36 1   
    82   35  159 1   
    83   35  160 1   
    84   36   37 1   
    85   36  161 1   
    86   36  162 1   
    87   37   38 1   
    88   37  163 1   
    89   37  164 1   
    90   38   39 1   
    91   38  165 1   
    92   38  166 1   
    93   39   40 1   
    94   39  167 1   
    95   39  168 1   
    96   40   86 1   
    97   40  169 1   
    98   40  170 1   
    99   41   42 1   
   100   41  171 1   
   101   41  172 1   
   102   42   43 1   
   103   42  173 1   
   104   42  174 1   
   105   43   44 1   
   106   43  175 1   
   107   43  176 1   
   108   44   45 1   
   109   44  177 1   
   110   44  178 1   
   111   45   46 1   
   112   45  179 1   
   113   45  180 1   
   114   46   47 1   
   115   46  181 1   
   116   46  182 1   
   117   47   48 1   
   118   47  183 1   
   119   47  184 1   
   120   48   49 1   
   121   48  185 1   
   122   48  186 1   
   123   49   50 1   
   124   49  187 1   
   125   49  188 1   
   126   50   51 1   
   127   50  189 1   
   128   50  190 1   
   129   51   87 1   
   130   51  191 1   
   131   51  192 1   
   132   52   53 1   
   133   52  193 1   
   134   52  194 1   
   135   53   54 1   
   136   53  195 1   
   137   53  196 1   
   138   54   55 1   
   139   54  197 1   
   140   54  198 1   
   141   55   56 1   
   142   55  199 1   
   143   55  200 1   
   144   56   57 1   
   145   56  201 1   
   146   56  202 1   
   147   57   58 1   
   148   57  203 1   
   149   57  204 1   
   150   58   59 1   
   151   58  205 1   
   152   58  206 1   
   153   59   60 1   
   154   59  207 1   
   155   59  208 1   
   156   60   61 1   
   157   60  209 1   
   158   60  210 1   
   159   61   62 1   
   160   61  211 1   
   161   61  212 1   
   162   62   88 1   
   163   62  213 1   
   164   62  214 1   
   165   63   64 1   
   166   63  215 1   
   167   63  216 1   
   168   64   65 1   
   169   64  217 1   
   170   64  218 1   
   171   65   66 1   
   172   65  219 1   
   173   65  220 1   
   174   66   67 1   
   175   66  221 1   
   176   66  222 1   
   177   67   68 1   
   178   67  223 1   
   179   67  224 1   
   180   68   69 1   
   181   68  225 1   
   182   68  226 1   
   183   69   70 1   
   184   69  227 1   
   185   69  228 1   
   186   70   71 1   
   187   70  229 1   
   188   70  230 1   
   189   71   72 1   
   190   71  231 1   
   191   71  232 1   
   192   72   73 1   
   193   72  233 1   
   194   72  234 1   
   195   73   89 1   
   196   73  235 1   
   197   73  236 1   
   198   74   75 1   
   199   74  237 1   
   200   74  238 1   
   201   75   76 1   
   202   75  239 1   
   203   75  240 1   
   204   76   77 1   
   205   76  241 1   
   206   76  242 1   
   207   77   78 1   
   208   77  243 1   
   209   77  244 1   
   210   78   79 1   
   211   78  245 1   
   212   78  246 1   
   213   79   80 1   
   214   79  247 1   
   215   79  248 1   
   216   80   81 1   
   217   80  249 1   
   218   80  250 1   
   219   81   82 1   
   220   81  251 1   
   221   81  252 1   
   222   82   83 1   
   223   82  253 1   
   224   82  254 1   
   225   83   84 1   
   226   83  255 1   
   227   83  256 1   
   228   84   90 1   
   229   84  257 1   
   230   84  258 1   
   231   85   91 1   
   232   86   92 1   
   233   87   93 1   
   234   88   94 1   
   235   89   95 1   
   236   90   96 1   
   237   91   97 2   
   238   91  100 1   
   239   92   98 2   
   240   92  102 1   
   241   93   99 2   
   242   93  104 1   
   243   94  106 2   
   244   94  107 1   
   245   95  109 2   
   246   95  110 1   
   247   96  111 2   
   248   96  112 1   
   249  100  101 2   
   250  100  259 1   
   251  101  260 1   
   252  101  261 1   
   253  102  103 2   
   254  102  262 1   
   255  103  263 1   
   256  103  264 1   
   257  104  105 1   
   258  104  108 1   
   259  104  265 1   
   260  105  266 1   
   261  105  267 1   
   262  105  268 1   
   263  107  108 1   
   264  107  269 1   
   265  107  270 1   
   266  108  271 1   
   267  108  272 1   
   268  110  114 2   
   269  110  273 1   
   270  112  113 2   
   271  112  274 1   
   272  113  275 1   
   273  113  276 1   
   274  114  277 1   
   275  114  278 1   
   276  115  116 1   
   277  116  117 1   
   278  118  119 1   
   279  119  120 1   
@<TRIPOS>SUBSTRUCTURE
     1 HII         1 TEMP              0 ****  ****    0 ROOT
