@<TRIPOS>MOLECULE
MOL
  137   137     1     0     0
SMALL
bcc


@<TRIPOS>ATOM
      1 O           -1.0590    -6.0330    -1.6180 o          0 MOL      -0.825300
      2 C            0.0000    -5.5120    -1.2970 c          0 MOL       0.908200
      3 C1           0.0000    -4.2590    -0.5240 ca         0 MOL      -0.071600
      4 C2           1.2110    -3.6620    -0.1560 ca         0 MOL      -0.193500
      5 C3           1.2070    -2.4860     0.5690 ca         0 MOL       0.103600
      6 O1           2.3840    -1.9050     0.9260 os         0 MOL      -0.337400
      7 C4           3.4270    -2.7360     0.4140 c3         0 MOL       0.128900
      8 C5           4.7850    -2.1360     0.7830 c3         0 MOL      -0.085400
      9 C6           5.9030    -3.0250     0.2350 c3         0 MOL      -0.079400
     10 C7           7.2610    -2.4250     0.6040 c3         0 MOL      -0.077400
     11 C8           8.3780    -3.3150     0.0550 c3         0 MOL      -0.079400
     12 C9           9.7360    -2.7140     0.4250 c3         0 MOL      -0.078400
     13 C10         10.8530    -3.6040    -0.1240 c3         0 MOL      -0.079400
     14 C11         12.2110    -3.0040     0.2460 c3         0 MOL      -0.078400
     15 C12         13.3280    -3.8930    -0.3030 c3         0 MOL      -0.078400
     16 C13         14.6860    -3.2930     0.0660 c3         0 MOL      -0.085400
     17 C14         15.8030    -4.1830    -0.4820 c3         0 MOL       0.140400
     18 O2          17.0920    -3.6130    -0.1320 os         0 MOL      -0.438900
     19 C15         18.2280    -4.2300    -0.5130 c          0 MOL       0.627800
     20 C16         19.5320    -3.6540    -0.1580 ce         0 MOL      -0.207200
     21 C17         20.6540    -4.2630    -0.5340 c2         0 MOL      -0.137000
     22 O3          18.1740    -5.2640    -1.1500 o          0 MOL      -0.547000
     23 C18          0.0000    -1.8940     0.9330 ca         0 MOL       0.011100
     24 O4           0.0000    -0.7380     1.6460 os         0 MOL      -0.321900
     25 C19          0.0000     0.3310     0.6980 c3         0 MOL       0.129400
     26 C20         -0.0000     1.6700     1.4390 c3         0 MOL      -0.083400
     27 C21         -0.0000     2.8150     0.4240 c3         0 MOL      -0.077400
     28 C22         -0.0000     4.1530     1.1650 c3         0 MOL      -0.078400
     29 C23         -0.0000     5.2980     0.1500 c3         0 MOL      -0.079400
     30 C24         -0.0000     6.6370     0.8910 c3         0 MOL      -0.078400
     31 C25         -0.0010     7.7820    -0.1250 c3         0 MOL      -0.079400
     32 C26         -0.0010     9.1200     0.6160 c3         0 MOL      -0.078400
     33 C27         -0.0010    10.2650    -0.3990 c3         0 MOL      -0.078400
     34 C28         -0.0010    11.6040     0.3420 c3         0 MOL      -0.085400
     35 C29         -0.0010    12.7480    -0.6730 c3         0 MOL       0.140400
     36 O5          -0.0010    14.0190     0.0300 os         0 MOL      -0.437900
     37 C30         -0.0010    15.1740    -0.6650 c          0 MOL       0.628300
     38 C31         -0.0010    16.4590     0.0470 ce         0 MOL      -0.208200
     39 C32         -0.0010    17.6000    -0.6390 c2         0 MOL      -0.136000
     40 O6          -0.0010    15.1520    -1.8800 o          0 MOL      -0.547000
     41 C33         -1.2070    -2.4860     0.5680 ca         0 MOL       0.103600
     42 O7          -2.3830    -1.9050     0.9260 os         0 MOL      -0.337400
     43 C34         -3.4270    -2.7360     0.4140 c3         0 MOL       0.128900
     44 C35         -4.7850    -2.1360     0.7830 c3         0 MOL      -0.085400
     45 C36         -5.9020    -3.0260     0.2340 c3         0 MOL      -0.079400
     46 C37         -7.2600    -2.4250     0.6040 c3         0 MOL      -0.077400
     47 C38         -8.3770    -3.3150     0.0550 c3         0 MOL      -0.079400
     48 C39         -9.7350    -2.7150     0.4250 c3         0 MOL      -0.078400
     49 C40        -10.8520    -3.6050    -0.1240 c3         0 MOL      -0.079400
     50 C41        -12.2100    -3.0040     0.2450 c3         0 MOL      -0.078400
     51 C42        -13.3280    -3.8940    -0.3030 c3         0 MOL      -0.078400
     52 C43        -14.6860    -3.2940     0.0660 c3         0 MOL      -0.085400
     53 C44        -15.8030    -4.1840    -0.4820 c3         0 MOL       0.140400
     54 O8         -17.0920    -3.6140    -0.1320 os         0 MOL      -0.438900
     55 C45        -18.2280    -4.2320    -0.5130 c          0 MOL       0.627800
     56 C46        -19.5320    -3.6550    -0.1580 ce         0 MOL      -0.207200
     57 C47        -20.6530    -4.2650    -0.5340 c2         0 MOL      -0.137000
     58 O9         -18.1730    -5.2650    -1.1490 o          0 MOL      -0.547000
     59 C48         -1.2100    -3.6590    -0.1620 ca         0 MOL      -0.193500
     60 O10          1.0600    -6.0350    -1.6140 o          0 MOL      -0.825300
     61 H            2.1470    -4.1200    -0.4390 ha         0 MOL       0.163000
     62 H1           3.3420    -3.7340     0.8440 h1         0 MOL       0.044200
     63 H2           3.3410    -2.8000    -0.6710 h1         0 MOL       0.044200
     64 H3           4.8710    -1.1380     0.3530 hc         0 MOL       0.049450
     65 H4           4.8710    -2.0720     1.8680 hc         0 MOL       0.049450
     66 H5           5.8170    -4.0230     0.6650 hc         0 MOL       0.043200
     67 H6           5.8170    -3.0890    -0.8500 hc         0 MOL       0.043200
     68 H7           7.3460    -1.4270     0.1740 hc         0 MOL       0.038200
     69 H8           7.3470    -2.3610     1.6890 hc         0 MOL       0.038200
     70 H9           8.2920    -4.3120     0.4860 hc         0 MOL       0.040700
     71 H10          8.2920    -3.3780    -1.0290 hc         0 MOL       0.040700
     72 H11          9.8210    -1.7170    -0.0060 hc         0 MOL       0.038200
     73 H12          9.8220    -2.6510     1.5100 hc         0 MOL       0.038200
     74 H13         10.7680    -4.6020     0.3060 hc         0 MOL       0.040700
     75 H14         10.7670    -3.6680    -1.2090 hc         0 MOL       0.040700
     76 H15         12.2960    -2.0060    -0.1850 hc         0 MOL       0.040200
     77 H16         12.2970    -2.9400     1.3300 hc         0 MOL       0.040200
     78 H17         13.2430    -4.8910     0.1270 hc         0 MOL       0.043200
     79 H18         13.2420    -3.9570    -1.3880 hc         0 MOL       0.043200
     80 H19         14.7720    -2.2950    -0.3640 hc         0 MOL       0.053700
     81 H20         14.7720    -3.2290     1.1510 hc         0 MOL       0.053700
     82 H21         15.7180    -5.1800    -0.0520 h1         0 MOL       0.052700
     83 H22         15.7170    -4.2460    -1.5670 h1         0 MOL       0.052700
     84 H23         19.5810    -2.7350     0.4080 ha         0 MOL       0.154000
     85 H24         21.6130    -3.8400    -0.2730 ha         0 MOL       0.129000
     86 H25         20.6060    -5.1820    -1.1000 ha         0 MOL       0.129000
     87 H26          0.8900     0.2620     0.0720 h1         0 MOL       0.036200
     88 H27         -0.8900     0.2620     0.0720 h1         0 MOL       0.036200
     89 H28         -0.8900     1.7390     2.0640 hc         0 MOL       0.049700
     90 H29          0.8900     1.7390     2.0640 hc         0 MOL       0.049700
     91 H30          0.8900     2.7460    -0.2020 hc         0 MOL       0.038700
     92 H31         -0.8900     2.7460    -0.2020 hc         0 MOL       0.038700
     93 H32         -0.8900     4.2220     1.7900 hc         0 MOL       0.038700
     94 H33          0.8900     4.2230     1.7900 hc         0 MOL       0.038700
     95 H34          0.8900     5.2290    -0.4760 hc         0 MOL       0.038700
     96 H35         -0.8900     5.2290    -0.4760 hc         0 MOL       0.038700
     97 H36         -0.8900     6.7060     1.5160 hc         0 MOL       0.038700
     98 H37          0.8900     6.7060     1.5160 hc         0 MOL       0.038700
     99 H38          0.8890     7.7130    -0.7500 hc         0 MOL       0.039700
    100 H39         -0.8910     7.7120    -0.7500 hc         0 MOL       0.039700
    101 H40         -0.8910     9.1890     1.2420 hc         0 MOL       0.040700
    102 H41          0.8890     9.1890     1.2420 hc         0 MOL       0.040700
    103 H42          0.8890    10.1960    -1.0240 hc         0 MOL       0.042700
    104 H43         -0.8910    10.1960    -1.0240 hc         0 MOL       0.042700
    105 H44         -0.8910    11.6730     0.9680 hc         0 MOL       0.053700
    106 H45          0.8890    11.6730     0.9680 hc         0 MOL       0.053700
    107 H46          0.8890    12.6790    -1.2980 h1         0 MOL       0.052700
    108 H47         -0.8910    12.6790    -1.2980 h1         0 MOL       0.052700
    109 H48         -0.0010    16.4790     1.1270 ha         0 MOL       0.154000
    110 H49         -0.0020    18.5450    -0.1160 ha         0 MOL       0.129500
    111 H50         -0.0020    17.5800    -1.7190 ha         0 MOL       0.129500
    112 H51         -3.3410    -2.8000    -0.6710 h1         0 MOL       0.044200
    113 H52         -3.3410    -3.7340     0.8440 h1         0 MOL       0.044200
    114 H53         -4.8710    -2.0720     1.8680 hc         0 MOL       0.049450
    115 H54         -4.8700    -1.1380     0.3520 hc         0 MOL       0.049450
    116 H55         -5.8160    -3.0900    -0.8500 hc         0 MOL       0.043200
    117 H56         -5.8170    -4.0230     0.6650 hc         0 MOL       0.043200
    118 H57         -7.3460    -2.3610     1.6890 hc         0 MOL       0.038200
    119 H58         -7.3460    -1.4280     0.1730 hc         0 MOL       0.038200
    120 H59         -8.2910    -3.3790    -1.0290 hc         0 MOL       0.040700
    121 H60         -8.2920    -4.3130     0.4860 hc         0 MOL       0.040700
    122 H61         -9.8210    -2.6510     1.5090 hc         0 MOL       0.038200
    123 H62         -9.8210    -1.7170    -0.0060 hc         0 MOL       0.038200
    124 H63        -10.7660    -3.6690    -1.2090 hc         0 MOL       0.040700
    125 H64        -10.7670    -4.6020     0.3070 hc         0 MOL       0.040700
    126 H65        -12.2960    -2.9400     1.3300 hc         0 MOL       0.040200
    127 H66        -12.2960    -2.0070    -0.1850 hc         0 MOL       0.040200
    128 H67        -13.2420    -3.9580    -1.3880 hc         0 MOL       0.043200
    129 H68        -13.2420    -4.8920     0.1280 hc         0 MOL       0.043200
    130 H69        -14.7720    -3.2300     1.1510 hc         0 MOL       0.053700
    131 H70        -14.7710    -2.2960    -0.3640 hc         0 MOL       0.053700
    132 H71        -15.7170    -4.2480    -1.5670 h1         0 MOL       0.052700
    133 H72        -15.7170    -5.1810    -0.0520 h1         0 MOL       0.052700
    134 H73        -19.5800    -2.7370     0.4080 ha         0 MOL       0.154000
    135 H74        -21.6120    -3.8410    -0.2730 ha         0 MOL       0.129000
    136 H75        -20.6050    -5.1830    -1.1000 ha         0 MOL       0.129000
    137 H76         -2.1460    -4.1170    -0.4440 ha         0 MOL       0.163000
@<TRIPOS>BOND
     1     1     2 1   
     2     2     3 1   
     3     2    60 1   
     4     3     4 ar  
     5     3    59 ar  
     6     4     5 ar  
     7     4    61 1   
     8     5     6 1   
     9     5    23 ar  
    10     6     7 1   
    11     7     8 1   
    12     7    62 1   
    13     7    63 1   
    14     8     9 1   
    15     8    64 1   
    16     8    65 1   
    17     9    10 1   
    18     9    66 1   
    19     9    67 1   
    20    10    11 1   
    21    10    68 1   
    22    10    69 1   
    23    11    12 1   
    24    11    70 1   
    25    11    71 1   
    26    12    13 1   
    27    12    72 1   
    28    12    73 1   
    29    13    14 1   
    30    13    74 1   
    31    13    75 1   
    32    14    15 1   
    33    14    76 1   
    34    14    77 1   
    35    15    16 1   
    36    15    78 1   
    37    15    79 1   
    38    16    17 1   
    39    16    80 1   
    40    16    81 1   
    41    17    18 1   
    42    17    82 1   
    43    17    83 1   
    44    18    19 1   
    45    19    20 1   
    46    19    22 2   
    47    20    21 2   
    48    20    84 1   
    49    21    85 1   
    50    21    86 1   
    51    23    24 1   
    52    23    41 ar  
    53    24    25 1   
    54    25    26 1   
    55    25    87 1   
    56    25    88 1   
    57    26    27 1   
    58    26    89 1   
    59    26    90 1   
    60    27    28 1   
    61    27    91 1   
    62    27    92 1   
    63    28    29 1   
    64    28    93 1   
    65    28    94 1   
    66    29    30 1   
    67    29    95 1   
    68    29    96 1   
    69    30    31 1   
    70    30    97 1   
    71    30    98 1   
    72    31    32 1   
    73    31    99 1   
    74    31   100 1   
    75    32    33 1   
    76    32   101 1   
    77    32   102 1   
    78    33    34 1   
    79    33   103 1   
    80    33   104 1   
    81    34    35 1   
    82    34   105 1   
    83    34   106 1   
    84    35    36 1   
    85    35   107 1   
    86    35   108 1   
    87    36    37 1   
    88    37    38 1   
    89    37    40 2   
    90    38    39 2   
    91    38   109 1   
    92    39   110 1   
    93    39   111 1   
    94    41    42 1   
    95    41    59 ar  
    96    42    43 1   
    97    43    44 1   
    98    43   112 1   
    99    43   113 1   
   100    44    45 1   
   101    44   114 1   
   102    44   115 1   
   103    45    46 1   
   104    45   116 1   
   105    45   117 1   
   106    46    47 1   
   107    46   118 1   
   108    46   119 1   
   109    47    48 1   
   110    47   120 1   
   111    47   121 1   
   112    48    49 1   
   113    48   122 1   
   114    48   123 1   
   115    49    50 1   
   116    49   124 1   
   117    49   125 1   
   118    50    51 1   
   119    50   126 1   
   120    50   127 1   
   121    51    52 1   
   122    51   128 1   
   123    51   129 1   
   124    52    53 1   
   125    52   130 1   
   126    52   131 1   
   127    53    54 1   
   128    53   132 1   
   129    53   133 1   
   130    54    55 1   
   131    55    56 1   
   132    55    58 2   
   133    56    57 2   
   134    56   134 1   
   135    57   135 1   
   136    57   136 1   
   137    59   137 1   
@<TRIPOS>SUBSTRUCTURE
     1 MOL         1 TEMP              0 ****  ****    0 ROOT
