@<TRIPOS>MOLECULE
output_1
  137   137     0     0     0
SMALL
USER_CHARGES

@<TRIPOS>ATOM
      1 C1         30.8800   26.3200   38.2400 C.ar      1 HII1       -0.0992
      2 C2         31.7000   26.2300   37.1200 C.ar      1 HII1       -0.1237
      3 C3         31.2300   26.5200   35.8400 C.ar      1 HII1        0.0561
      4 C4         29.9300   26.9800   35.6700 C.ar      1 HII1        0.0245
      5 C5         29.1600   27.2200   36.8000 C.ar      1 HII1        0.0561
      6 C6         29.6100   26.8400   38.0500 C.ar      1 HII1       -0.1237
      7 O1         27.9100   27.7500   36.6200 O.3       1 HII1       -0.3437
      8 O2         29.3700   27.2100   34.4400 O.3       1 HII1       -0.3444
      9 O3         32.1600   26.4000   34.8400 O.3       1 HII1       -0.3437
     10 C7         31.3800   25.9300   39.5800 C.2       1 HII1        0.9130
     11 O4         32.5100   25.5300   39.7400 O.co2     1 HII1       -0.8220
     12 O5         30.7200   26.0400   40.6000 O.co2     1 HII1       -0.8220
     13 C8         27.6200   29.0600   37.1400 C.3       1 HII1        0.1280
     14 C9         28.3300   30.1900   36.3700 C.3       1 HII1       -0.0949
     15 C10        27.9600   30.2800   34.8800 C.3       1 HII1       -0.0780
     16 C11        28.0900   31.7200   34.3800 C.3       1 HII1       -0.0771
     17 C12        29.5200   32.1800   34.0800 C.3       1 HII1       -0.0796
     18 C13        29.7600   33.6900   33.8700 C.3       1 HII1       -0.0773
     19 C14        28.8100   34.3500   32.8600 C.3       1 HII1       -0.0780
     20 C15        28.8900   33.6700   31.4800 C.3       1 HII1       -0.0785
     21 C16        27.7000   34.1100   30.6100 C.3       1 HII1       -0.0785
     22 C17        27.9700   33.7700   29.1400 C.3       1 HII1       -0.1022
     23 C18        26.7600   34.1300   28.2600 C.3       1 HII1        0.1309
     24 O6         27.2700   34.6800   27.0300 O.3       1 HII1       -0.4382
     25 C19        26.6700   34.3700   25.8700 C.2       1 HII1        0.6303
     26 C20        27.3000   35.1400   24.7900 C.2       1 HII1       -0.2068
     27 C21        26.9300   35.0700   23.5100 C.2       1 HII1       -0.1402
     28 C22        29.1400   26.1200   33.5300 C.3       1 HII1        0.1281
     29 C23        28.2300   26.6200   32.4000 C.3       1 HII1       -0.0848
     30 C24        28.9100   27.4500   31.3000 C.3       1 HII1       -0.0794
     31 C25        27.9000   27.9900   30.2800 C.3       1 HII1       -0.0779
     32 C26        28.5700   28.8100   29.1700 C.3       1 HII1       -0.0802
     33 C27        27.9000   28.7800   27.7900 C.3       1 HII1       -0.0790
     34 C28        28.6700   29.6100   26.7500 C.3       1 HII1       -0.0794
     35 C29        28.1300   29.5300   25.3200 C.3       1 HII1       -0.0791
     36 C30        29.0600   30.0100   24.2000 C.3       1 HII1       -0.0785
     37 C31        28.8600   31.5100   23.9200 C.3       1 HII1       -0.1006
     38 C32        29.8000   31.9900   22.8000 C.3       1 HII1        0.1317
     39 O7         29.4600   31.3600   21.5500 O.3       1 HII1       -0.4453
     40 C33        30.2300   30.3500   21.1000 C.2       1 HII1        0.6276
     41 C34        29.8300   29.7600   19.8100 C.2       1 HII1       -0.2056
     42 C35        28.6600   30.0400   19.2100 C.2       1 HII1       -0.1356
     43 C36        32.4200   27.4800   33.9200 C.3       1 HII1        0.1280
     44 C37        33.5000   26.9700   32.9600 C.3       1 HII1       -0.0949
     45 C38        33.9700   28.0500   31.9800 C.3       1 HII1       -0.0780
     46 C39        32.8100   28.6900   31.2000 C.3       1 HII1       -0.0771
     47 C40        33.3800   29.6700   30.1700 C.3       1 HII1       -0.0796
     48 C41        32.3600   30.2300   29.1700 C.3       1 HII1       -0.0773
     49 C42        33.2000   30.8400   28.0400 C.3       1 HII1       -0.0780
     50 C43        32.5100   31.7100   26.9800 C.3       1 HII1       -0.0785
     51 C44        31.6300   32.8300   27.5600 C.3       1 HII1       -0.0785
     52 C45        31.8800   34.1700   26.8700 C.3       1 HII1       -0.1022
     53 C46        31.1000   35.2800   27.5900 C.3       1 HII1        0.1309
     54 O8         31.6200   36.5800   27.2600 O.3       1 HII1       -0.4382
     55 C47        31.3500   37.1300   26.0700 C.2       1 HII1        0.6303
     56 C48        32.0900   38.3800   25.8100 C.2       1 HII1       -0.2068
     57 C49        31.8300   39.1600   24.7500 C.2       1 HII1       -0.1402
     58 O9         30.5500   36.6600   25.2900 O.2       1 HII1       -0.5572
     59 O10        31.1900   29.9200   21.6900 O.2       1 HII1       -0.5428
     60 O11        25.7300   33.6000   25.7300 O.2       1 HII1       -0.5572
     61 H1         32.7200   25.9000   37.2400 H         1 HII1        0.1638
     62 H2         28.9400   26.8900   38.9100 H         1 HII1        0.1638
     63 H3         26.5500   29.2600   37.1400 H         1 HII1        0.0437
     64 H4         27.9900   29.0900   38.1600 H         1 HII1        0.0437
     65 H5         28.0400   31.1100   36.8800 H         1 HII1        0.0485
     66 H6         29.4000   30.0200   36.5300 H         1 HII1        0.0485
     67 H7         28.6500   29.6500   34.3100 H         1 HII1        0.0441
     68 H8         26.9000   30.0500   34.8100 H         1 HII1        0.0441
     69 H9         27.5100   31.7900   33.4600 H         1 HII1        0.0370
     70 H10        27.6400   32.4300   35.0800 H         1 HII1        0.0370
     71 H11        30.1700   31.8700   34.9000 H         1 HII1        0.0403
     72 H12        29.9200   31.6800   33.1900 H         1 HII1        0.0403
     73 H13        29.6600   34.1700   34.8500 H         1 HII1        0.0384
     74 H14        30.7800   33.8500   33.5300 H         1 HII1        0.0384
     75 H15        27.7900   34.3500   33.2300 H         1 HII1        0.0373
     76 H16        29.1000   35.4000   32.7700 H         1 HII1        0.0373
     77 H17        29.8300   33.9400   30.9900 H         1 HII1        0.0419
     78 H18        28.8200   32.5900   31.6100 H         1 HII1        0.0419
     79 H19        26.8100   33.5900   30.9800 H         1 HII1        0.0428
     80 H20        27.5200   35.1700   30.7500 H         1 HII1        0.0428
     81 H21        28.8200   34.3800   28.8400 H         1 HII1        0.0534
     82 H22        28.2100   32.7100   29.0000 H         1 HII1        0.0534
     83 H23        26.1500   33.2500   28.1100 H         1 HII1        0.0669
     84 H24        26.1500   34.8900   28.7600 H         1 HII1        0.0669
     85 H25        28.1500   35.7400   25.1000 H         1 HII1        0.1668
     86 H26        27.4400   35.5900   22.7000 H         1 HII1        0.1274
     87 H27        26.0600   34.5100   23.1800 H         1 HII1        0.1274
     88 H28        30.1000   25.7500   33.1700 H         1 HII1        0.0441
     89 H29        28.6200   25.3200   34.0800 H         1 HII1        0.0441
     90 H30        27.8600   25.7300   31.8900 H         1 HII1        0.0478
     91 H31        27.4200   27.2000   32.8500 H         1 HII1        0.0478
     92 H32        29.3800   28.3200   31.7500 H         1 HII1        0.0436
     93 H33        29.6300   26.8100   30.7800 H         1 HII1        0.0436
     94 H34        27.4700   27.1000   29.8200 H         1 HII1        0.0370
     95 H35        27.1800   28.6200   30.8000 H         1 HII1        0.0370
     96 H36        28.6200   29.8500   29.4900 H         1 HII1        0.0381
     97 H37        29.5700   28.4100   28.9700 H         1 HII1        0.0381
     98 H38        27.8400   27.7400   27.4700 H         1 HII1        0.0393
     99 H39        26.9100   29.2200   27.8800 H         1 HII1        0.0393
    100 H40        28.6500   30.6600   27.0300 H         1 HII1        0.0379
    101 H41        29.6900   29.2300   26.7400 H         1 HII1        0.0379
    102 H42        27.9800   28.4700   25.1000 H         1 HII1        0.0424
    103 H43        27.1700   30.0500   25.2200 H         1 HII1        0.0424
    104 H44        30.0800   29.8600   24.5500 H         1 HII1        0.0450
    105 H45        28.8000   29.4400   23.3100 H         1 HII1        0.0450
    106 H46        27.8300   31.7000   23.6200 H         1 HII1        0.0552
    107 H47        29.0400   32.1100   24.8200 H         1 HII1        0.0552
    108 H48        29.6800   33.0600   22.6700 H         1 HII1        0.0656
    109 H49        30.8500   31.8600   23.0500 H         1 HII1        0.0656
    110 H50        30.4900   29.0000   19.3900 H         1 HII1        0.1537
    111 H51        28.3500   29.5400   18.3000 H         1 HII1        0.1274
    112 H52        27.9900   30.7700   19.6500 H         1 HII1        0.1274
    113 H53        31.4900   27.7400   33.4200 H         1 HII1        0.0437
    114 H54        32.8600   28.2500   34.5600 H         1 HII1        0.0437
    115 H55        34.3500   26.5900   33.5400 H         1 HII1        0.0485
    116 H56        33.1100   26.1100   32.4100 H         1 HII1        0.0485
    117 H57        34.5100   28.8400   32.5100 H         1 HII1        0.0441
    118 H58        34.5700   27.5700   31.2000 H         1 HII1        0.0441
    119 H59        32.2700   27.8900   30.6900 H         1 HII1        0.0370
    120 H60        32.2200   29.3100   31.8800 H         1 HII1        0.0370
    121 H61        33.9300   30.4700   30.6700 H         1 HII1        0.0403
    122 H62        34.1200   29.1200   29.5800 H         1 HII1        0.0403
    123 H63        31.7200   29.4200   28.8100 H         1 HII1        0.0384
    124 H64        31.7100   30.9400   29.6700 H         1 HII1        0.0384
    125 H65        33.9300   31.5200   28.4900 H         1 HII1        0.0373
    126 H66        33.7000   30.0200   27.5200 H         1 HII1        0.0373
    127 H67        33.2700   32.1800   26.3500 H         1 HII1        0.0419
    128 H68        31.8300   31.0900   26.4000 H         1 HII1        0.0419
    129 H69        30.5900   32.5100   27.4800 H         1 HII1        0.0428
    130 H70        31.9900   33.0000   28.5800 H         1 HII1        0.0428
    131 H71        32.9400   34.4500   26.9300 H         1 HII1        0.0534
    132 H72        31.5100   34.0700   25.8500 H         1 HII1        0.0534
    133 H73        30.0400   35.3100   27.3300 H         1 HII1        0.0669
    134 H74        31.1700   35.1900   28.6800 H         1 HII1        0.0669
    135 H75        32.8300   38.7000   26.5400 H         1 HII1        0.1668
    136 H76        32.4300   40.0500   24.5500 H         1 HII1        0.1274
    137 H77        31.0600   38.8800   24.0300 H         1 HII1        0.1274
@<TRIPOS>BOND
     1    1    2 ar
     2    2    3 ar
     3    3    4 ar
     4    4    5 ar
     5    1    6 ar
     6    5    6 ar
     7    5    7 1
     8    4    8 1
     9    3    9 1
    10    1   10 1
    11   10   11 2
    12   10   12 1
    13    7   13 1
    14   13   14 1
    15   14   15 1
    16   15   16 1
    17   16   17 1
    18   17   18 1
    19   18   19 1
    20   19   20 1
    21   20   21 1
    22   21   22 1
    23   22   23 1
    24   23   24 1
    25   24   25 1
    26   25   26 1
    27   26   27 2
    28    8   28 1
    29   28   29 1
    30   29   30 1
    31   30   31 1
    32   31   32 1
    33   32   33 1
    34   33   34 1
    35   34   35 1
    36   35   36 1
    37   36   37 1
    38   37   38 1
    39   38   39 1
    40   39   40 1
    41   40   41 1
    42   41   42 2
    43    9   43 1
    44   43   44 1
    45   44   45 1
    46   45   46 1
    47   46   47 1
    48   47   48 1
    49   48   49 1
    50   49   50 1
    51   50   51 1
    52   51   52 1
    53   52   53 1
    54   53   54 1
    55   54   55 1
    56   55   56 1
    57   56   57 2
    58   55   58 2
    59   40   59 2
    60   25   60 2
    61    2   61 1
    62    6   62 1
    63   13   63 1
    64   13   64 1
    65   14   65 1
    66   14   66 1
    67   15   67 1
    68   15   68 1
    69   16   69 1
    70   16   70 1
    71   17   71 1
    72   17   72 1
    73   18   73 1
    74   18   74 1
    75   19   75 1
    76   19   76 1
    77   20   77 1
    78   20   78 1
    79   21   79 1
    80   21   80 1
    81   22   81 1
    82   22   82 1
    83   23   83 1
    84   23   84 1
    85   26   85 1
    86   27   86 1
    87   27   87 1
    88   28   88 1
    89   28   89 1
    90   29   90 1
    91   29   91 1
    92   30   92 1
    93   30   93 1
    94   31   94 1
    95   31   95 1
    96   32   96 1
    97   32   97 1
    98   33   98 1
    99   33   99 1
   100   34  100 1
   101   34  101 1
   102   35  102 1
   103   35  103 1
   104   36  104 1
   105   36  105 1
   106   37  106 1
   107   37  107 1
   108   38  108 1
   109   38  109 1
   110   41  110 1
   111   42  111 1
   112   42  112 1
   113   43  113 1
   114   43  114 1
   115   44  115 1
   116   44  116 1
   117   45  117 1
   118   45  118 1
   119   46  119 1
   120   46  120 1
   121   47  121 1
   122   47  122 1
   123   48  123 1
   124   48  124 1
   125   49  125 1
   126   49  126 1
   127   50  127 1
   128   50  128 1
   129   51  129 1
   130   51  130 1
   131   52  131 1
   132   52  132 1
   133   53  133 1
   134   53  134 1
   135   56  135 1
   136   57  136 1
   137   57  137 1
