@<TRIPOS>MOLECULE
output_1
  136   137     0     0     0
SMALL
USER_CHARGES

@<TRIPOS>ATOM
      1 C1         43.9300   51.1100   31.7900 C.2       1 MOL1       -0.2057
      2 C2         44.6600   51.3700   32.8800 C.2       1 MOL1       -0.1379
      3 C3         45.4200   50.3600   33.5900 C.2       1 MOL1       -0.1363
      4 C4         46.1700   50.6100   34.6700 C.2       1 MOL1       -0.1588
      5 C5         46.9500   49.5300   35.3900 C.3       1 MOL1       -0.0508
      6 C6         46.2400   49.1000   36.6900 C.3       1 MOL1       -0.0741
      7 C7         46.8600   47.8000   37.2400 C.3       1 MOL1       -0.0783
      8 C8         46.1800   47.3300   38.5500 C.3       1 MOL1       -0.0757
      9 C9         46.7100   48.0800   39.7900 C.3       1 MOL1       -0.0789
     10 C10        46.0300   47.5400   41.0700 C.3       1 MOL1       -0.0772
     11 C11        46.7600   47.9900   42.3600 C.3       1 MOL1       -0.0763
     12 C12        46.1100   47.3100   43.5800 C.3       1 MOL1       -0.0788
     13 C13        46.9600   47.4700   44.8600 C.3       1 MOL1       -0.0786
     14 C14        46.3500   46.7300   46.0800 C.3       1 MOL1       -0.0775
     15 C15        46.3000   45.2000   45.8800 C.3       1 MOL1       -0.0809
     16 C16        45.7500   44.4700   47.1200 C.3       1 MOL1       -0.0829
     17 C17        45.6300   42.9600   46.8300 C.3       1 MOL1       -0.0994
     18 C18        44.9800   42.1800   47.9900 C.3       1 MOL1        0.0174
     19 N1         45.7400   42.2100   49.2400 N.pl3     1 MOL1       -0.0192
     20 C19        47.0600   41.8100   49.4000 C.2       1 MOL1       -0.1171
     21 C20        47.4200   41.9600   50.7200 C.2       1 MOL1       -0.1179
     22 N2         46.3000   42.4500   51.3300 N.pl3     1 MOL1       -0.0125
     23 C21        46.2200   42.7700   52.7600 C.3       1 MOL1        0.0139
     24 C22        46.6100   41.6000   53.7100 C.3       1 MOL1       -0.1022
     25 C23        45.7800   40.3100   53.5300 C.3       1 MOL1       -0.0891
     26 C24        44.2600   40.5200   53.7600 C.3       1 MOL1       -0.0891
     27 C25        43.5200   39.2100   54.1300 C.3       1 MOL1       -0.1022
     28 C26        43.5400   38.1300   53.0200 C.3       1 MOL1        0.0139
     29 N3         42.7600   38.4700   51.8300 N.pl3     1 MOL1       -0.0125
     30 C27        41.3900   38.7100   51.7900 C.2       1 MOL1       -0.1179
     31 C28        41.0000   38.9000   50.4900 C.2       1 MOL1       -0.1171
     32 N4         42.1400   38.7600   49.7600 N.pl3     1 MOL1       -0.0192
     33 C29        42.1900   38.8500   48.2900 C.3       1 MOL1        0.0174
     34 C30        41.6100   40.1800   47.7400 C.3       1 MOL1       -0.0994
     35 C31        41.9000   40.4000   46.2400 C.3       1 MOL1       -0.0829
     36 C32        41.3300   39.2700   45.3500 C.3       1 MOL1       -0.0809
     37 C33        41.4800   39.5600   43.8400 C.3       1 MOL1       -0.0775
     38 C34        40.5600   40.7100   43.3500 C.3       1 MOL1       -0.0786
     39 C35        40.4100   40.7600   41.8100 C.3       1 MOL1       -0.0788
     40 C36        39.4700   39.6500   41.2800 C.3       1 MOL1       -0.0763
     41 C37        39.4200   39.5500   39.7400 C.3       1 MOL1       -0.0772
     42 C38        38.5600   40.6400   39.0400 C.3       1 MOL1       -0.0789
     43 C39        39.3700   41.8800   38.6000 C.3       1 MOL1       -0.0757
     44 C40        38.6000   42.7500   37.5600 C.3       1 MOL1       -0.0783
     45 C41        38.6100   42.1200   36.1500 C.3       1 MOL1       -0.0741
     46 C42        37.7800   42.9300   35.1300 C.3       1 MOL1       -0.0508
     47 C43        38.3600   44.3000   34.8600 C.2       1 MOL1       -0.1588
     48 C44        39.4700   44.5000   34.1300 C.2       1 MOL1       -0.1363
     49 C45        40.0200   45.8100   33.8600 C.2       1 MOL1       -0.1379
     50 C46        41.1400   46.0000   33.1400 C.2       1 MOL1       -0.2052
     51 C47        43.2300   38.4800   50.5300 C.cat     1 MOL1       -0.0583
     52 C48        45.2700   42.6400   50.4600 C.cat     1 MOL1       -0.0583
     53 H1         43.3700   51.9000   31.2800 H         1 MOL1        0.1142
     54 H2         43.8600   50.1100   31.3700 H         1 MOL1        0.1142
     55 H3         44.7200   52.3800   33.2900 H         1 MOL1        0.1222
     56 H4         45.3500   49.3500   33.1800 H         1 MOL1        0.1210
     57 H5         46.2400   51.6100   35.0800 H         1 MOL1        0.1209
     58 H6         47.0800   48.6700   34.7300 H         1 MOL1        0.0477
     59 H7         47.9500   49.9000   35.6300 H         1 MOL1        0.0477
     60 H8         46.3100   49.9000   37.4200 H         1 MOL1        0.0413
     61 H9         45.1800   48.9300   36.4800 H         1 MOL1        0.0413
     62 H10        46.7400   47.0100   36.5000 H         1 MOL1        0.0426
     63 H11        47.9300   47.9300   37.4000 H         1 MOL1        0.0426
     64 H12        45.1000   47.4500   38.4700 H         1 MOL1        0.0348
     65 H13        46.3800   46.2700   38.6800 H         1 MOL1        0.0348
     66 H14        47.7900   47.9300   39.8700 H         1 MOL1        0.0444
     67 H15        46.5300   49.1600   39.7100 H         1 MOL1        0.0444
     68 H16        44.9900   47.8800   41.0900 H         1 MOL1        0.0389
     69 H17        46.0200   46.4500   41.0300 H         1 MOL1        0.0389
     70 H18        47.8100   47.6900   42.2900 H         1 MOL1        0.0410
     71 H19        46.7200   49.0700   42.4600 H         1 MOL1        0.0410
     72 H20        45.1100   47.7300   43.7500 H         1 MOL1        0.0414
     73 H21        45.9900   46.2500   43.3500 H         1 MOL1        0.0414
     74 H22        47.9700   47.0900   44.6800 H         1 MOL1        0.0425
     75 H23        47.0600   48.5300   45.1000 H         1 MOL1        0.0425
     76 H24        46.9600   46.9600   46.9600 H         1 MOL1        0.0464
     77 H25        45.3500   47.1200   46.2700 H         1 MOL1        0.0464
     78 H26        45.6500   44.9600   45.0400 H         1 MOL1        0.0466
     79 H27        47.3000   44.8300   45.6500 H         1 MOL1        0.0466
     80 H28        46.4200   44.6400   47.9700 H         1 MOL1        0.0478
     81 H29        44.7700   44.8800   47.3800 H         1 MOL1        0.0478
     82 H30        45.0200   42.8200   45.9300 H         1 MOL1        0.0666
     83 H31        46.6200   42.5400   46.6000 H         1 MOL1        0.0666
     84 H32        43.9800   42.6000   48.1700 H         1 MOL1        0.0872
     85 H33        44.8600   41.1400   47.6900 H         1 MOL1        0.0872
     86 H34        47.6500   41.4600   48.5600 H         1 MOL1        0.2392
     87 H35        48.3600   41.7900   51.2500 H         1 MOL1        0.2386
     88 H36        46.8900   43.6100   52.9600 H         1 MOL1        0.0996
     89 H37        45.2100   43.1000   53.0000 H         1 MOL1        0.0996
     90 H38        47.6700   41.3600   53.5700 H         1 MOL1        0.0880
     91 H39        46.5200   41.9500   54.7400 H         1 MOL1        0.0880
     92 H40        45.9500   39.8900   52.5300 H         1 MOL1        0.0503
     93 H41        46.1500   39.5800   54.2500 H         1 MOL1        0.0503
     94 H42        44.1300   41.2200   54.6000 H         1 MOL1        0.0503
     95 H43        43.8000   40.9800   52.8900 H         1 MOL1        0.0503
     96 H44        43.9800   38.7900   55.0300 H         1 MOL1        0.0880
     97 H45        42.4900   39.4400   54.4000 H         1 MOL1        0.0880
     98 H46        44.5700   37.9100   52.7400 H         1 MOL1        0.0996
     99 H47        43.1200   37.2100   53.4400 H         1 MOL1        0.0996
    100 H48        40.8000   38.7000   52.7100 H         1 MOL1        0.2386
    101 H49        40.0200   39.0800   50.0400 H         1 MOL1        0.2392
    102 H50        43.2200   38.7500   47.9600 H         1 MOL1        0.0872
    103 H51        41.6200   38.0100   47.8800 H         1 MOL1        0.0872
    104 H52        40.5200   40.2000   47.8900 H         1 MOL1        0.0666
    105 H53        42.0200   41.0200   48.3100 H         1 MOL1        0.0666
    106 H54        41.4600   41.3600   45.9500 H         1 MOL1        0.0478
    107 H55        42.9800   40.4800   46.0800 H         1 MOL1        0.0478
    108 H56        41.8600   38.3400   45.5600 H         1 MOL1        0.0466
    109 H57        40.2800   39.1100   45.5800 H         1 MOL1        0.0466
    110 H58        42.5200   39.7900   43.5900 H         1 MOL1        0.0464
    111 H59        41.2300   38.6400   43.3100 H         1 MOL1        0.0464
    112 H60        39.5700   40.6200   43.8000 H         1 MOL1        0.0425
    113 H61        40.9800   41.6700   43.6900 H         1 MOL1        0.0425
    114 H62        40.0000   41.7400   41.5400 H         1 MOL1        0.0414
    115 H63        41.4000   40.6900   41.3400 H         1 MOL1        0.0414
    116 H64        39.8200   38.6800   41.6500 H         1 MOL1        0.0410
    117 H65        38.4700   39.8000   41.6800 H         1 MOL1        0.0410
    118 H66        40.4300   39.5300   39.3200 H         1 MOL1        0.0389
    119 H67        38.9700   38.5900   39.5000 H         1 MOL1        0.0389
    120 H68        38.1200   40.1700   38.1600 H         1 MOL1        0.0444
    121 H69        37.7300   40.9400   39.6800 H         1 MOL1        0.0444
    122 H70        39.5900   42.5000   39.4700 H         1 MOL1        0.0348
    123 H71        40.3300   41.5800   38.1700 H         1 MOL1        0.0348
    124 H72        37.5700   42.9000   37.9000 H         1 MOL1        0.0426
    125 H73        39.0700   43.7300   37.5200 H         1 MOL1        0.0426
    126 H74        39.6400   42.0300   35.7900 H         1 MOL1        0.0413
    127 H75        38.1900   41.1100   36.1800 H         1 MOL1        0.0413
    128 H76        37.7200   42.3700   34.1900 H         1 MOL1        0.0477
    129 H77        36.7500   43.0300   35.5000 H         1 MOL1        0.0477
    130 H78        37.8200   45.1500   35.2900 H         1 MOL1        0.1209
    131 H79        40.0100   43.6500   33.7000 H         1 MOL1        0.1210
    132 H80        39.4700   46.6600   34.2700 H         1 MOL1        0.1222
    133 H81        41.5200   47.0000   32.9600 H         1 MOL1        0.1142
    134 H82        41.7000   45.1700   32.7200 H         1 MOL1        0.1142
    135 H83        44.2300   38.2300   50.2000 H         1 MOL1        0.2485
    136 H84        44.3100   43.0800   50.6800 H         1 MOL1        0.2485
@<TRIPOS>BOND
     1    1    2 2
     2    2    3 1
     3    3    4 2
     4    4    5 1
     5    5    6 1
     6    6    7 1
     7    7    8 1
     8    8    9 1
     9    9   10 1
    10   10   11 1
    11   11   12 1
    12   12   13 1
    13   13   14 1
    14   14   15 1
    15   15   16 1
    16   16   17 1
    17   17   18 1
    18   18   19 1
    19   19   20 1
    20   20   21 2
    21   21   22 1
    22   22   23 1
    23   23   24 1
    24   24   25 1
    25   25   26 1
    26   26   27 1
    27   27   28 1
    28   28   29 1
    29   29   30 1
    30   30   31 2
    31   31   32 1
    32   32   33 1
    33   33   34 1
    34   34   35 1
    35   35   36 1
    36   36   37 1
    37   37   38 1
    38   38   39 1
    39   39   40 1
    40   40   41 1
    41   41   42 1
    42   42   43 1
    43   43   44 1
    44   44   45 1
    45   45   46 1
    46   46   47 1
    47   47   48 2
    48   48   49 1
    49   49   50 2
    50   32   51 1
    51   29   51 2
    52   22   52 1
    53   19   52 2
    54    1   53 1
    55    1   54 1
    56    2   55 1
    57    3   56 1
    58    4   57 1
    59    5   58 1
    60    5   59 1
    61    6   60 1
    62    6   61 1
    63    7   62 1
    64    7   63 1
    65    8   64 1
    66    8   65 1
    67    9   66 1
    68    9   67 1
    69   10   68 1
    70   10   69 1
    71   11   70 1
    72   11   71 1
    73   12   72 1
    74   12   73 1
    75   13   74 1
    76   13   75 1
    77   14   76 1
    78   14   77 1
    79   15   78 1
    80   15   79 1
    81   16   80 1
    82   16   81 1
    83   17   82 1
    84   17   83 1
    85   18   84 1
    86   18   85 1
    87   20   86 1
    88   21   87 1
    89   23   88 1
    90   23   89 1
    91   24   90 1
    92   24   91 1
    93   25   92 1
    94   25   93 1
    95   26   94 1
    96   26   95 1
    97   27   96 1
    98   27   97 1
    99   28   98 1
   100   28   99 1
   101   30  100 1
   102   31  101 1
   103   33  102 1
   104   33  103 1
   105   34  104 1
   106   34  105 1
   107   35  106 1
   108   35  107 1
   109   36  108 1
   110   36  109 1
   111   37  110 1
   112   37  111 1
   113   38  112 1
   114   38  113 1
   115   39  114 1
   116   39  115 1
   117   40  116 1
   118   40  117 1
   119   41  118 1
   120   41  119 1
   121   42  120 1
   122   42  121 1
   123   43  122 1
   124   43  123 1
   125   44  124 1
   126   44  125 1
   127   45  126 1
   128   45  127 1
   129   46  128 1
   130   46  129 1
   131   47  130 1
   132   48  131 1
   133   49  132 1
   134   50  133 1
   135   50  134 1
   136   51  135 1
   137   52  136 1
