@<TRIPOS>MOLECULE
MOL
  136   137     1     0     0
SMALL
bcc


@<TRIPOS>ATOM
      1 C          28.6000   35.0500   15.2800 c2        1 MOL     -0.203000
      2 C1         29.5400   35.4900   16.1400 ce        1 MOL     -0.140000
      3 C2         30.3400   34.5600   16.9200 ce        1 MOL     -0.135500
      4 C3         30.5400   34.7100   18.2500 c2        1 MOL     -0.164200
      5 C4         31.4500   33.8200   19.0600 c3        1 MOL     -0.049700
      6 C5         30.5700   33.3000   20.2100 c3        1 MOL     -0.076400
      7 C6         31.3400   32.2500   21.0300 c3        1 MOL     -0.079400
      8 C7         30.4700   31.5300   22.0700 c3        1 MOL     -0.077900
      9 C8         30.9900   32.0700   23.4200 c3        1 MOL     -0.079900
     10 C9         30.4700   31.5300   24.7600 c3        1 MOL     -0.078900
     11 C10        31.5000   31.4400   25.8900 c3        1 MOL     -0.078400
     12 C11        30.6900   31.4200   27.2000 c3        1 MOL     -0.079900
     13 C12        31.5000   31.7200   28.4700 c3        1 MOL     -0.079400
     14 C13        31.0600   30.8800   29.6800 c3        1 MOL     -0.078900
     15 C14        31.0100   29.3900   29.2700 c3        1 MOL     -0.081400
     16 C15        30.8500   28.5400   30.5400 c3        1 MOL     -0.084900
     17 C16        29.9400   27.3700   30.1200 c3        1 MOL     -0.102400
     18 C17        29.2900   26.3900   31.1100 c3        1 MOL      0.012300
     19 N          30.1600   26.5700   32.2700 na        1 MOL     -0.007600
     20 C18        31.4600   26.2000   32.5300 cc        1 MOL     -0.109800
     21 C19        31.7700   26.2000   33.8700 cd        1 MOL     -0.126300
     22 N1         30.6300   26.7500   34.4200 na        1 MOL     -0.028100
     23 C20        30.4400   27.0700   35.8300 c3        1 MOL      0.020300
     24 C21        31.1500   26.0400   36.7300 c3        1 MOL     -0.100900
     25 C22        30.3900   24.7000   36.8200 c3        1 MOL     -0.089400
     26 C23        28.9000   24.7800   37.1700 c3        1 MOL     -0.089400
     27 C24        28.0900   23.5900   37.7000 c3        1 MOL     -0.100900
     28 C25        28.0500   22.5100   36.6100 c3        1 MOL      0.020300
     29 N2         27.4600   22.7300   35.2900 na        1 MOL     -0.028100
     30 C26        26.2000   23.2900   35.2300 cc        1 MOL     -0.126300
     31 C27        25.9200   23.4300   33.8900 cd        1 MOL     -0.109800
     32 N3         27.0400   23.0400   33.1800 na        1 MOL     -0.007600
     33 C28        27.1000   23.1700   31.7200 c3        1 MOL      0.012300
     34 C29        26.0700   24.0300   30.9800 c3        1 MOL     -0.102400
     35 C30        26.3400   24.5000   29.5400 c3        1 MOL     -0.084900
     36 C31        26.3400   23.3900   28.4800 c3        1 MOL     -0.081400
     37 C32        26.1700   23.8800   27.0400 c3        1 MOL     -0.078900
     38 C33        25.3800   25.1100   26.5500 c3        1 MOL     -0.079400
     39 C34        25.1000   25.1600   25.0400 c3        1 MOL     -0.079900
     40 C35        24.2100   23.9600   24.7000 c3        1 MOL     -0.078400
     41 C36        23.6200   23.9900   23.2800 c3        1 MOL     -0.078900
     42 C37        23.0700   25.3400   22.8000 c3        1 MOL     -0.079900
     43 C38        23.8100   26.3700   21.9200 c3        1 MOL     -0.077900
     44 C39        22.8200   27.0000   20.9200 c3        1 MOL     -0.079400
     45 C40        23.3900   26.8400   19.5100 c3        1 MOL     -0.076400
     46 C41        22.4100   27.2700   18.4000 c3        1 MOL     -0.049700
     47 C42        22.8200   28.5200   17.6600 c2        1 MOL     -0.164200
     48 C43        23.7300   28.5100   16.6800 ce        1 MOL     -0.135500
     49 C44        24.3000   29.8000   16.2900 ce        1 MOL     -0.140000
     50 C45        25.5200   30.1600   16.7400 c2        1 MOL     -0.203000
     51 C46        27.9800   22.5000   34.0300 cc        1 MOL     -0.038600
     52 C47        29.6800   27.0600   33.4700 cc        1 MOL     -0.038600
     53 H          27.9300   35.8100   14.8800 ha        1 MOL      0.114750
     54 H1         28.3000   34.0100   15.2700 ha        1 MOL      0.114750
     55 H2         29.6200   36.5400   16.4100 ha        1 MOL      0.118500
     56 H3         30.6900   33.6500   16.4300 ha        1 MOL      0.124500
     57 H4         30.1200   35.5500   18.7900 ha        1 MOL      0.118500
     58 H5         31.8700   33.0000   18.4600 hc        1 MOL      0.048700
     59 H6         32.3000   34.4000   19.4400 hc        1 MOL      0.048700
     60 H7         29.9900   34.0300   20.7900 hc        1 MOL      0.042700
     61 H8         29.8600   32.7600   19.5700 hc        1 MOL      0.042700
     62 H9         31.8200   31.4800   20.4100 hc        1 MOL      0.040950
     63 H10        32.1800   32.8000   21.4700 hc        1 MOL      0.040950
     64 H11        29.4300   31.8500   22.0100 hc        1 MOL      0.038450
     65 H12        30.6400   30.4500   22.1600 hc        1 MOL      0.038450
     66 H13        32.0800   31.9400   23.5200 hc        1 MOL      0.042950
     67 H14        30.7200   33.1200   23.5400 hc        1 MOL      0.042950
     68 H15        29.7000   32.2700   25.0100 hc        1 MOL      0.041200
     69 H16        29.7700   30.7000   24.5600 hc        1 MOL      0.041200
     70 H17        32.2300   30.6500   25.7200 hc        1 MOL      0.040450
     71 H18        32.0600   32.3700   25.8500 hc        1 MOL      0.040450
     72 H19        29.9700   32.2600   27.2100 hc        1 MOL      0.042700
     73 H20        30.1300   30.4800   27.1200 hc        1 MOL      0.042700
     74 H21        32.5600   31.4900   28.2800 hc        1 MOL      0.042700
     75 H22        31.4400   32.7700   28.7700 hc        1 MOL      0.042700
     76 H23        31.6700   30.8900   30.5900 hc        1 MOL      0.043450
     77 H24        30.1600   31.2800   30.1500 hc        1 MOL      0.043450
     78 H25        30.0400   29.3700   28.7700 hc        1 MOL      0.046950
     79 H26        31.9000   29.2200   28.6600 hc        1 MOL      0.046950
     80 H27        31.8100   28.4800   31.0600 hc        1 MOL      0.047450
     81 H28        30.2000   29.0800   31.2400 hc        1 MOL      0.047450
     82 H29        29.0300   27.7100   29.6000 hc        1 MOL      0.072200
     83 H30        30.5500   26.7800   29.4300 hc        1 MOL      0.072200
     84 H31        28.3400   26.9100   31.2800 h1        1 MOL      0.097450
     85 H32        29.2600   25.3100   30.8900 h1        1 MOL      0.097450
     86 H33        32.1800   26.0100   31.7400 h4        1 MOL      0.237500
     87 H34        32.6800   25.9900   34.4200 h4        1 MOL      0.230500
     88 H35        30.9200   27.9600   36.2700 h1        1 MOL      0.092700
     89 H36        29.3600   27.0400   35.9800 h1        1 MOL      0.092700
     90 H37        32.2300   25.9200   36.5800 hc        1 MOL      0.076200
     91 H38        31.1100   26.2900   37.8000 hc        1 MOL      0.076200
     92 H39        30.5400   24.1500   35.8800 hc        1 MOL      0.054700
     93 H40        31.0200   24.0600   37.4400 hc        1 MOL      0.054700
     94 H41        28.6700   25.4200   38.0300 hc        1 MOL      0.054700
     95 H42        28.3300   25.0200   36.2600 hc        1 MOL      0.054700
     96 H43        28.5500   23.2800   38.6500 hc        1 MOL      0.076200
     97 H44        27.1200   23.9400   38.0800 hc        1 MOL      0.076200
     98 H45        28.9800   21.9600   36.4400 h1        1 MOL      0.092700
     99 H46        27.3200   21.7700   36.9600 h1        1 MOL      0.092700
    100 H47        25.7300   23.7000   36.1100 h4        1 MOL      0.230500
    101 H48        25.1600   24.0500   33.4500 h4        1 MOL      0.237500
    102 H49        28.0300   23.7200   31.5300 h1        1 MOL      0.097450
    103 H50        26.9800   22.1600   31.3000 h1        1 MOL      0.097450
    104 H51        25.2300   23.3500   30.8300 hc        1 MOL      0.072200
    105 H52        25.6300   24.8900   31.5100 hc        1 MOL      0.072200
    106 H53        25.4600   25.1200   29.3100 hc        1 MOL      0.047450
    107 H54        27.1400   25.2600   29.5300 hc        1 MOL      0.047450
    108 H55        27.2300   22.7900   28.6800 hc        1 MOL      0.046950
    109 H56        25.5800   22.6200   28.6600 hc        1 MOL      0.046950
    110 H57        27.1100   24.2500   26.5900 hc        1 MOL      0.043450
    111 H58        25.7000   23.0100   26.5700 hc        1 MOL      0.043450
    112 H59        24.4600   25.2400   27.1400 hc        1 MOL      0.042700
    113 H60        25.9300   25.9800   26.9500 hc        1 MOL      0.042700
    114 H61        24.4600   26.0500   24.9700 hc        1 MOL      0.042700
    115 H62        25.9500   25.3100   24.3700 hc        1 MOL      0.042700
    116 H63        24.8400   23.0700   24.6700 hc        1 MOL      0.040450
    117 H64        23.4700   23.8000   25.5000 hc        1 MOL      0.040450
    118 H65        24.2900   23.6200   22.4900 hc        1 MOL      0.041200
    119 H66        22.9300   23.1500   23.1600 hc        1 MOL      0.041200
    120 H67        22.0500   25.1100   22.4600 hc        1 MOL      0.042950
    121 H68        22.5300   25.8100   23.6300 hc        1 MOL      0.042950
    122 H69        24.1100   27.2800   22.4500 hc        1 MOL      0.038450
    123 H70        24.8200   26.0200   21.6800 hc        1 MOL      0.038450
    124 H71        21.8100   26.7400   21.2600 hc        1 MOL      0.040950
    125 H72        22.9600   28.0900   20.9900 hc        1 MOL      0.040950
    126 H73        24.4000   27.2600   19.4000 hc        1 MOL      0.042700
    127 H74        23.8300   25.8900   19.1900 hc        1 MOL      0.042700
    128 H75        22.4000   26.4000   17.7300 hc        1 MOL      0.048700
    129 H76        21.4500   27.3800   18.9300 hc        1 MOL      0.048700
    130 H77        22.3800   29.5000   17.8400 ha        1 MOL      0.118500
    131 H78        24.2700   27.6000   16.4200 ha        1 MOL      0.124500
    132 H79        23.7100   30.4700   15.6700 ha        1 MOL      0.118500
    133 H80        25.9500   31.1100   16.4400 ha        1 MOL      0.114750
    134 H81        25.9800   29.5200   17.4900 ha        1 MOL      0.114750
    135 H82        29.0400   22.4800   33.8300 h5        1 MOL      0.253000
    136 H83        28.8500   27.7500   33.4900 h5        1 MOL      0.253000
@<TRIPOS>BOND
     1    1    2 2   
     2    1   53 1   
     3    1   54 1   
     4    2    3 1   
     5    2   55 1   
     6    3    4 2   
     7    3   56 1   
     8    4    5 1   
     9    4   57 1   
    10    5    6 1   
    11    5   58 1   
    12    5   59 1   
    13    6    7 1   
    14    6   60 1   
    15    6   61 1   
    16    7    8 1   
    17    7   62 1   
    18    7   63 1   
    19    8    9 1   
    20    8   64 1   
    21    8   65 1   
    22    9   10 1   
    23    9   66 1   
    24    9   67 1   
    25   10   11 1   
    26   10   68 1   
    27   10   69 1   
    28   11   12 1   
    29   11   70 1   
    30   11   71 1   
    31   12   13 1   
    32   12   72 1   
    33   12   73 1   
    34   13   14 1   
    35   13   74 1   
    36   13   75 1   
    37   14   15 1   
    38   14   76 1   
    39   14   77 1   
    40   15   16 1   
    41   15   78 1   
    42   15   79 1   
    43   16   17 1   
    44   16   80 1   
    45   16   81 1   
    46   17   18 1   
    47   17   82 1   
    48   17   83 1   
    49   18   19 1   
    50   18   84 1   
    51   18   85 1   
    52   19   20 1   
    53   19   52 2   
    54   20   21 2   
    55   20   86 1   
    56   21   22 1   
    57   21   87 1   
    58   22   23 1   
    59   22   52 1   
    60   23   24 1   
    61   23   88 1   
    62   23   89 1   
    63   24   25 1   
    64   24   90 1   
    65   24   91 1   
    66   25   26 1   
    67   25   92 1   
    68   25   93 1   
    69   26   27 1   
    70   26   94 1   
    71   26   95 1   
    72   27   28 1   
    73   27   96 1   
    74   27   97 1   
    75   28   29 1   
    76   28   98 1   
    77   28   99 1   
    78   29   30 1   
    79   29   51 2   
    80   30   31 2   
    81   30  100 1   
    82   31   32 1   
    83   31  101 1   
    84   32   33 1   
    85   32   51 1   
    86   33   34 1   
    87   33  102 1   
    88   33  103 1   
    89   34   35 1   
    90   34  104 1   
    91   34  105 1   
    92   35   36 1   
    93   35  106 1   
    94   35  107 1   
    95   36   37 1   
    96   36  108 1   
    97   36  109 1   
    98   37   38 1   
    99   37  110 1   
   100   37  111 1   
   101   38   39 1   
   102   38  112 1   
   103   38  113 1   
   104   39   40 1   
   105   39  114 1   
   106   39  115 1   
   107   40   41 1   
   108   40  116 1   
   109   40  117 1   
   110   41   42 1   
   111   41  118 1   
   112   41  119 1   
   113   42   43 1   
   114   42  120 1   
   115   42  121 1   
   116   43   44 1   
   117   43  122 1   
   118   43  123 1   
   119   44   45 1   
   120   44  124 1   
   121   44  125 1   
   122   45   46 1   
   123   45  126 1   
   124   45  127 1   
   125   46   47 1   
   126   46  128 1   
   127   46  129 1   
   128   47   48 2   
   129   47  130 1   
   130   48   49 1   
   131   48  131 1   
   132   49   50 2   
   133   49  132 1   
   134   50  133 1   
   135   50  134 1   
   136   51  135 1   
   137   52  136 1   
@<TRIPOS>SUBSTRUCTURE
     1 MOL         1 TEMP              0 ****  ****    0 ROOT
