@<TRIPOS>MOLECULE
output_1
   14    13     0     0     0
SMALL
USER_CHARGES

@<TRIPOS>ATOM
      1 C1         32.1900   31.0600   31.9800 C.3       1 GLY1        0.1074
      2 C2         32.9100   32.3300   32.4700 C.3       1 GLY1        0.0728
      3 C3         31.9900   33.5700   32.3800 C.3       1 GLY1        0.1074
      4 O1         34.0600   32.5800   31.6600 O.3       1 GLY1       -0.5984
      5 O2         31.1900   30.6700   32.9300 O.3       1 GLY1       -0.5987
      6 O3         32.6900   34.7200   32.8700 O.3       1 GLY1       -0.5987
      7 H1         31.7300   31.2500   31.0100 H         1 GLY1        0.0652
      8 H2         32.9200   30.2500   31.8700 H         1 GLY1        0.0652
      9 H3         33.2300   32.1900   33.5100 H         1 GLY1        0.0297
     10 H4         31.7000   33.7300   31.3400 H         1 GLY1        0.0652
     11 H5         31.0800   33.4000   32.9800 H         1 GLY1        0.0652
     12 H6         34.2500   33.5400   31.7500 H         1 GLY1        0.4191
     13 H7         31.6400   30.2500   33.6900 H         1 GLY1        0.3993
     14 H8         32.6600   34.7000   33.8500 H         1 GLY1        0.3993
@<TRIPOS>BOND
     1    1    7 1
     2    3   10 1
     3    4   12 1
     4    2    4 1
     5    1    8 1
     6    1    2 1
     7    1    5 1
     8    2    3 1
     9    3    6 1
    10    3   11 1
    11    2    9 1
    12    6   14 1
    13    5   13 1
