@<TRIPOS>MOLECULE
GLY
   14    13     1     0     0
SMALL
bcc


@<TRIPOS>ATOM
      1 C           1.4460   -3.7000    0.0530 c3        1 GLY      0.114400
      2 C1          2.0860   -2.3680    0.5110 c3        1 GLY      0.061100
      3 C2          1.0590   -1.2120    0.5980 c3        1 GLY      0.114400
      4 O           3.1250   -2.0150   -0.4000 oh        1 GLY     -0.609800
      5 O1          0.4340   -4.1270    0.9600 oh        1 GLY     -0.597800
      6 O2          1.6700   -0.0090    1.0510 oh        1 GLY     -0.597800
      7 H           0.9210   -3.5130   -0.8840 h1        1 GLY      0.056450
      8 H1          2.2120   -4.4730    0.1040 h1        1 GLY      0.056450
      9 H2          2.5620   -2.5020    1.4830 h1        1 GLY      0.047700
     10 H3          0.7210   -0.9890   -0.4140 h1        1 GLY      0.056450
     11 H4          0.3350   -1.4660    1.3720 h1        1 GLY      0.056450
     12 H5          3.9060   -1.7500    0.0910 ho        1 GLY      0.422000
     13 H6          0.7380   -3.9990    1.8610 ho        1 GLY      0.410000
     14 H7          1.6770    0.0050    2.0110 ho        1 GLY      0.410000
@<TRIPOS>BOND
     1    1    2 1   
     2    1    5 1   
     3    1    7 1   
     4    1    8 1   
     5    2    3 1   
     6    2    4 1   
     7    2    9 1   
     8    3    6 1   
     9    3   10 1   
    10    3   11 1   
    11    4   12 1   
    12    5   13 1   
    13    6   14 1   
@<TRIPOS>SUBSTRUCTURE
     1 GLY         1 TEMP              0 ****  ****    0 ROOT
